Global frequency set at 1000000000000 ticks per second
      0: Creating MemDepUnit 0 object.
      0: Creating MemDepUnit 1 object.
      0: Creating MemDepUnit 2 object.
      0: Creating MemDepUnit 3 object.
      0: system.cpu.iq: IQ sharing policy set to Partitioned:64 entries per thread.
      0: system.cpu.iew.lsq.thread0: Creating LSQUnit0 object.
      0: system.cpu.rob: Created ROB
      0: system.cpu.rob: Reseting state.
      0: global: RegFile: Setting int register 38 to 0x7ffffefda0
      0: global: RegFile: Setting int register 0 to 0
      0: global: RegFile: Setting int register 1 to 0x7ffffeff5a
      0: global: RegFile: Setting int register 2 to 0
      0: system.cpu.iew.lsq.thread0: LQ size: 128, #loads occupied: 0
      0: system.cpu.iew.lsq.thread0: Load Queue:
      0: system.cpu.iew.lsq.thread0: SQ size: 128, #stores occupied: 0
      0: system.cpu.iew.lsq.thread0: LQ size: 128, #loads occupied: 0
      0: system.cpu.iew.lsq.thread0: Load Queue:
      0: system.cpu.iew.lsq.thread0: SQ size: 128, #stores occupied: 0
      0: system.cpu.rob: Setting active threads list pointer.
gem5 Simulator System.  https://www.gem5.org
gem5 is copyrighted software; use the --copyright option for details.

gem5 version 22.0.0.2
gem5 compiled Nov 21 2025 20:31:49
gem5 started Nov 21 2025 20:33:15
gem5 executing on ececomp1.ecn.purdue.edu, pid 385323
command line: ./build/ECE565-ARM/gem5.opt --debug-flags=ROB,MemDepUnit,IEW,LSQUnit,IQ configs/spec/spec_se.py --cpu-type=ArmO3CPU --maxinsts=1000000 --l1d_size=64kB --l1i_size=16kB --caches --l2cache -b sjeng

**** REAL SIMULATION ****
      0: system.cpu.iew: Issue: Processing [tid:0]
      0: system.cpu.iew: [tid:0] Not blocked, so attempting to run dispatch.
      0: system.cpu.iew: [tid:0] Getting list of reinsertion ready instructions from WIB
      0: system.cpu.rob: [tid:0] Finding oldest ready instructions in WIB.
      0: system.cpu.rob: [tid:0] WIB Read Cycle - even:1
      0: system.cpu.iew: [tid:0] There are 0 reinsertion ready instructions from WIB
      0: system.cpu.iq: Attempting to schedule ready instructions from the IQ.
      0: system.cpu.iq: Not able to schedule any instructions.
      0: system.cpu.iew: Processing [tid:0]
      0: system.cpu.iew.lsq.thread0: LQ size: 128, #loads occupied: 0
      0: system.cpu.iew.lsq.thread0: Load Queue:
      0: system.cpu.iew.lsq.thread0: SQ size: 128, #stores occupied: 0
      0: system.cpu.iew: [tid:0], Dispatch dispatched 0 instructions.
      0: system.cpu.iew.lsq.thread0: SQ size: 128, #stores occupied: 0
      0: system.cpu.iew.lsq.thread0: LQ size: 128, #loads occupied: 0
      0: system.cpu.iew.lsq.thread0: Load Queue:
      0: system.cpu.iew: IQ has 64 free entries (Can schedule: 0).  LQ has 128 free entries. SQ has 128 free entries.
      0: system.cpu.iew: IEW switching to idle
      0: system.cpu.rob: Does not need to squash due to being empty [sn:0]
    500: system.cpu.iew: Issue: Processing [tid:0]
    500: system.cpu.iew: [tid:0] Squashing all instructions.
    500: system.cpu.iq: [tid:0] Starting to squash instructions in the IQ.
    500: system.cpu.iq: [tid:0] Squashing until sequence number 0!
    500: system.cpu.iew.lsq.thread0: Squashing until [sn:0]!(Loads:0 Stores:0)
    500: system.cpu.iew: Removing skidbuffer instructions until [sn:0] [tid:0]
    500: system.cpu.iew: [tid:0] Removing incoming rename instructions
    500: system.cpu.iq: Attempting to schedule ready instructions from the IQ.
    500: system.cpu.iq: Not able to schedule any instructions.
    500: system.cpu.iew: Processing [tid:0]
    500: system.cpu.iew.lsq.thread0: LQ size: 128, #loads occupied: 0
    500: system.cpu.iew.lsq.thread0: Load Queue:
    500: system.cpu.iew.lsq.thread0: SQ size: 128, #stores occupied: 0
    500: system.cpu.iew: [tid:0], Dispatch dispatched 0 instructions.
    500: system.cpu.iew.lsq.thread0: SQ size: 128, #stores occupied: 0
    500: system.cpu.iew.lsq.thread0: LQ size: 128, #loads occupied: 0
    500: system.cpu.iew.lsq.thread0: Load Queue:
    500: system.cpu.iew: IQ has 64 free entries (Can schedule: 0).  LQ has 128 free entries. SQ has 128 free entries.
   1000: system.cpu.iew: Issue: Processing [tid:0]
   1000: system.cpu.iew: [tid:0] Done squashing, switching to running.
   1000: system.cpu.iew: [tid:0] Not blocked, so attempting to run dispatch.
   1000: system.cpu.iew: [tid:0] Getting list of reinsertion ready instructions from WIB
   1000: system.cpu.rob: [tid:0] Finding oldest ready instructions in WIB.
   1000: system.cpu.rob: [tid:0] WIB Read Cycle - even:0
   1000: system.cpu.iew: [tid:0] There are 0 reinsertion ready instructions from WIB
   1000: system.cpu.iq: Attempting to schedule ready instructions from the IQ.
   1000: system.cpu.iq: Not able to schedule any instructions.
   1000: system.cpu.iew: Processing [tid:0]
   1000: system.cpu.iew: [tid:0], Dispatch dispatched 0 instructions.
   1000: system.cpu.iew.lsq.thread0: SQ size: 128, #stores occupied: 0
   1000: system.cpu.iew.lsq.thread0: LQ size: 128, #loads occupied: 0
   1000: system.cpu.iew.lsq.thread0: Load Queue:
   1000: system.cpu.iew: IQ has 64 free entries (Can schedule: 0).  LQ has 128 free entries. SQ has 128 free entries.
   1500: system.cpu.iew: Issue: Processing [tid:0]
   1500: system.cpu.iew: [tid:0] Not blocked, so attempting to run dispatch.
   1500: system.cpu.iew: [tid:0] Getting list of reinsertion ready instructions from WIB
   1500: system.cpu.rob: [tid:0] Finding oldest ready instructions in WIB.
   1500: system.cpu.rob: [tid:0] WIB Read Cycle - even:1
   1500: system.cpu.iew: [tid:0] There are 0 reinsertion ready instructions from WIB
   1500: system.cpu.iq: Attempting to schedule ready instructions from the IQ.
   1500: system.cpu.iq: Not able to schedule any instructions.
   1500: system.cpu.iew: Processing [tid:0]
   1500: system.cpu.iew: [tid:0], Dispatch dispatched 0 instructions.
   1500: system.cpu.iew.lsq.thread0: SQ size: 128, #stores occupied: 0
   1500: system.cpu.iew.lsq.thread0: LQ size: 128, #loads occupied: 0
   1500: system.cpu.iew.lsq.thread0: Load Queue:
   1500: system.cpu.iew: IQ has 64 free entries (Can schedule: 0).  LQ has 128 free entries. SQ has 128 free entries.
   2000: system.cpu.iew: Issue: Processing [tid:0]
   2000: system.cpu.iew: [tid:0] Not blocked, so attempting to run dispatch.
   2000: system.cpu.iew: [tid:0] Getting list of reinsertion ready instructions from WIB
   2000: system.cpu.rob: [tid:0] Finding oldest ready instructions in WIB.
   2000: system.cpu.rob: [tid:0] WIB Read Cycle - even:0
   2000: system.cpu.iew: [tid:0] There are 0 reinsertion ready instructions from WIB
   2000: system.cpu.iq: Attempting to schedule ready instructions from the IQ.
   2000: system.cpu.iq: Not able to schedule any instructions.
   2000: system.cpu.iew: Processing [tid:0]
   2000: system.cpu.iew: [tid:0], Dispatch dispatched 0 instructions.
   2000: system.cpu.iew.lsq.thread0: SQ size: 128, #stores occupied: 0
   2000: system.cpu.iew.lsq.thread0: LQ size: 128, #loads occupied: 0
   2000: system.cpu.iew.lsq.thread0: Load Queue:
   2000: system.cpu.iew: IQ has 64 free entries (Can schedule: 0).  LQ has 128 free entries. SQ has 128 free entries.
   2500: system.cpu.iew: Issue: Processing [tid:0]
   2500: system.cpu.iew: [tid:0] Not blocked, so attempting to run dispatch.
   2500: system.cpu.iew: [tid:0] Getting list of reinsertion ready instructions from WIB
   2500: system.cpu.rob: [tid:0] Finding oldest ready instructions in WIB.
   2500: system.cpu.rob: [tid:0] WIB Read Cycle - even:1
   2500: system.cpu.iew: [tid:0] There are 0 reinsertion ready instructions from WIB
   2500: system.cpu.iq: Attempting to schedule ready instructions from the IQ.
   2500: system.cpu.iq: Not able to schedule any instructions.
   2500: system.cpu.iew: Processing [tid:0]
   2500: system.cpu.iew: [tid:0], Dispatch dispatched 0 instructions.
   2500: system.cpu.iew.lsq.thread0: SQ size: 128, #stores occupied: 0
   2500: system.cpu.iew.lsq.thread0: LQ size: 128, #loads occupied: 0
   2500: system.cpu.iew.lsq.thread0: Load Queue:
   2500: system.cpu.iew: IQ has 64 free entries (Can schedule: 0).  LQ has 128 free entries. SQ has 128 free entries.
   3000: system.cpu.iew: Issue: Processing [tid:0]
   3000: system.cpu.iew: [tid:0] Not blocked, so attempting to run dispatch.
   3000: system.cpu.iew: [tid:0] Getting list of reinsertion ready instructions from WIB
   3000: system.cpu.rob: [tid:0] Finding oldest ready instructions in WIB.
   3000: system.cpu.rob: [tid:0] WIB Read Cycle - even:0
   3000: system.cpu.iew: [tid:0] There are 0 reinsertion ready instructions from WIB
   3000: system.cpu.iq: Attempting to schedule ready instructions from the IQ.
   3000: system.cpu.iq: Not able to schedule any instructions.
   3000: system.cpu.iew: Processing [tid:0]
   3000: system.cpu.iew: [tid:0], Dispatch dispatched 0 instructions.
   3000: system.cpu.iew.lsq.thread0: SQ size: 128, #stores occupied: 0
   3000: system.cpu.iew.lsq.thread0: LQ size: 128, #loads occupied: 0
   3000: system.cpu.iew.lsq.thread0: Load Queue:
   3000: system.cpu.iew: IQ has 64 free entries (Can schedule: 0).  LQ has 128 free entries. SQ has 128 free entries.
   3500: system.cpu.iew: Issue: Processing [tid:0]
   3500: system.cpu.iew: [tid:0] Not blocked, so attempting to run dispatch.
   3500: system.cpu.iew: [tid:0] Getting list of reinsertion ready instructions from WIB
   3500: system.cpu.rob: [tid:0] Finding oldest ready instructions in WIB.
   3500: system.cpu.rob: [tid:0] WIB Read Cycle - even:1
   3500: system.cpu.iew: [tid:0] There are 0 reinsertion ready instructions from WIB
   3500: system.cpu.iq: Attempting to schedule ready instructions from the IQ.
   3500: system.cpu.iq: Not able to schedule any instructions.
   3500: system.cpu.iew: Processing [tid:0]
   3500: system.cpu.iew: [tid:0], Dispatch dispatched 0 instructions.
   3500: system.cpu.iew.lsq.thread0: SQ size: 128, #stores occupied: 0
   3500: system.cpu.iew.lsq.thread0: LQ size: 128, #loads occupied: 0
   3500: system.cpu.iew.lsq.thread0: Load Queue:
   3500: system.cpu.iew: IQ has 64 free entries (Can schedule: 0).  LQ has 128 free entries. SQ has 128 free entries.
   4000: system.cpu.iew: Issue: Processing [tid:0]
   4000: system.cpu.iew: [tid:0] Not blocked, so attempting to run dispatch.
   4000: system.cpu.iew: [tid:0] Getting list of reinsertion ready instructions from WIB
   4000: system.cpu.rob: [tid:0] Finding oldest ready instructions in WIB.
   4000: system.cpu.rob: [tid:0] WIB Read Cycle - even:0
   4000: system.cpu.iew: [tid:0] There are 0 reinsertion ready instructions from WIB
   4000: system.cpu.iq: Attempting to schedule ready instructions from the IQ.
   4000: system.cpu.iq: Not able to schedule any instructions.
   4000: system.cpu.iew: Processing [tid:0]
   4000: system.cpu.iew: [tid:0], Dispatch dispatched 0 instructions.
   4000: system.cpu.iew.lsq.thread0: SQ size: 128, #stores occupied: 0
   4000: system.cpu.iew.lsq.thread0: LQ size: 128, #loads occupied: 0
   4000: system.cpu.iew.lsq.thread0: Load Queue:
   4000: system.cpu.iew: IQ has 64 free entries (Can schedule: 0).  LQ has 128 free entries. SQ has 128 free entries.
   4500: system.cpu.iew: Issue: Processing [tid:0]
   4500: system.cpu.iew: [tid:0] Not blocked, so attempting to run dispatch.
   4500: system.cpu.iew: [tid:0] Getting list of reinsertion ready instructions from WIB
   4500: system.cpu.rob: [tid:0] Finding oldest ready instructions in WIB.
   4500: system.cpu.rob: [tid:0] WIB Read Cycle - even:1
   4500: system.cpu.iew: [tid:0] There are 0 reinsertion ready instructions from WIB
   4500: system.cpu.iq: Attempting to schedule ready instructions from the IQ.
   4500: system.cpu.iq: Not able to schedule any instructions.
   4500: system.cpu.iew: Processing [tid:0]
   4500: system.cpu.iew: [tid:0], Dispatch dispatched 0 instructions.
   4500: system.cpu.iew.lsq.thread0: SQ size: 128, #stores occupied: 0
   4500: system.cpu.iew.lsq.thread0: LQ size: 128, #loads occupied: 0
   4500: system.cpu.iew.lsq.thread0: Load Queue:
   4500: system.cpu.iew: IQ has 64 free entries (Can schedule: 0).  LQ has 128 free entries. SQ has 128 free entries.
   5000: system.cpu.iew: Issue: Processing [tid:0]
   5000: system.cpu.iew: [tid:0] Not blocked, so attempting to run dispatch.
   5000: system.cpu.iew: [tid:0] Getting list of reinsertion ready instructions from WIB
   5000: system.cpu.rob: [tid:0] Finding oldest ready instructions in WIB.
   5000: system.cpu.rob: [tid:0] WIB Read Cycle - even:0
   5000: system.cpu.iew: [tid:0] There are 0 reinsertion ready instructions from WIB
   5000: system.cpu.iq: Attempting to schedule ready instructions from the IQ.
   5000: system.cpu.iq: Not able to schedule any instructions.
   5000: system.cpu.iew: Processing [tid:0]
   5000: system.cpu.iew: [tid:0], Dispatch dispatched 0 instructions.
   5000: system.cpu.iew.lsq.thread0: SQ size: 128, #stores occupied: 0
   5000: system.cpu.iew.lsq.thread0: LQ size: 128, #loads occupied: 0
   5000: system.cpu.iew.lsq.thread0: Load Queue:
   5000: system.cpu.iew: IQ has 64 free entries (Can schedule: 0).  LQ has 128 free entries. SQ has 128 free entries.
   5500: system.cpu.iew: Issue: Processing [tid:0]
   5500: system.cpu.iew: [tid:0] Not blocked, so attempting to run dispatch.
   5500: system.cpu.iew: [tid:0] Getting list of reinsertion ready instructions from WIB
   5500: system.cpu.rob: [tid:0] Finding oldest ready instructions in WIB.
   5500: system.cpu.rob: [tid:0] WIB Read Cycle - even:1
   5500: system.cpu.iew: [tid:0] There are 0 reinsertion ready instructions from WIB
   5500: system.cpu.iq: Attempting to schedule ready instructions from the IQ.
   5500: system.cpu.iq: Not able to schedule any instructions.
   5500: system.cpu.iew: Processing [tid:0]
   5500: system.cpu.iew: [tid:0], Dispatch dispatched 0 instructions.
   5500: system.cpu.iew.lsq.thread0: SQ size: 128, #stores occupied: 0
   5500: system.cpu.iew.lsq.thread0: LQ size: 128, #loads occupied: 0
   5500: system.cpu.iew.lsq.thread0: Load Queue:
   5500: system.cpu.iew: IQ has 64 free entries (Can schedule: 0).  LQ has 128 free entries. SQ has 128 free entries.
  89000: system.cpu.iew: Issue: Processing [tid:0]
  89000: system.cpu.iew: [tid:0] Not blocked, so attempting to run dispatch.
  89000: system.cpu.iew: [tid:0] Getting list of reinsertion ready instructions from WIB
  89000: system.cpu.rob: [tid:0] Finding oldest ready instructions in WIB.
  89000: system.cpu.rob: [tid:0] WIB Read Cycle - even:0
  89000: system.cpu.iew: [tid:0] There are 0 reinsertion ready instructions from WIB
  89000: system.cpu.iq: Attempting to schedule ready instructions from the IQ.
  89000: system.cpu.iq: Not able to schedule any instructions.
  89000: system.cpu.iew: Processing [tid:0]
  89000: system.cpu.iew: [tid:0], Dispatch dispatched 0 instructions.
  89000: system.cpu.iew.lsq.thread0: SQ size: 128, #stores occupied: 0
  89000: system.cpu.iew.lsq.thread0: LQ size: 128, #loads occupied: 0
  89000: system.cpu.iew.lsq.thread0: Load Queue:
  89000: system.cpu.iew: IQ has 64 free entries (Can schedule: 0).  LQ has 128 free entries. SQ has 128 free entries.
  89500: system.cpu.iew: Issue: Processing [tid:0]
  89500: system.cpu.iew: [tid:0] Not blocked, so attempting to run dispatch.
  89500: system.cpu.iew: [tid:0] Getting list of reinsertion ready instructions from WIB
  89500: system.cpu.rob: [tid:0] Finding oldest ready instructions in WIB.
  89500: system.cpu.rob: [tid:0] WIB Read Cycle - even:1
  89500: system.cpu.iew: [tid:0] There are 0 reinsertion ready instructions from WIB
  89500: system.cpu.iq: Attempting to schedule ready instructions from the IQ.
  89500: system.cpu.iq: Not able to schedule any instructions.
  89500: system.cpu.iew: Processing [tid:0]
  89500: system.cpu.iew: [tid:0], Dispatch dispatched 0 instructions.
  89500: system.cpu.iew.lsq.thread0: SQ size: 128, #stores occupied: 0
  89500: system.cpu.iew.lsq.thread0: LQ size: 128, #loads occupied: 0
  89500: system.cpu.iew.lsq.thread0: Load Queue:
  89500: system.cpu.iew: IQ has 64 free entries (Can schedule: 0).  LQ has 128 free entries. SQ has 128 free entries.
  90000: global: [sn:3] has 1 ready out of 2 sources. RTI 0)
  90000: global: [sn:3] has 2 ready out of 2 sources. RTI 0)
  90000: system.cpu.iew: Issue: Processing [tid:0]
  90000: system.cpu.iew: [tid:0] Not blocked, so attempting to run dispatch.
  90000: system.cpu.iew: [tid:0] Getting list of reinsertion ready instructions from WIB
  90000: system.cpu.rob: [tid:0] Finding oldest ready instructions in WIB.
  90000: system.cpu.rob: [tid:0] WIB Read Cycle - even:0
  90000: system.cpu.iew: [tid:0] There are 0 reinsertion ready instructions from WIB
  90000: system.cpu.iq: Attempting to schedule ready instructions from the IQ.
  90000: system.cpu.iq: Not able to schedule any instructions.
  90000: system.cpu.iew: Processing [tid:0]
  90000: system.cpu.iew: [tid:0], Dispatch dispatched 0 instructions.
  90000: system.cpu.iew.lsq.thread0: SQ size: 128, #stores occupied: 0
  90000: system.cpu.iew.lsq.thread0: LQ size: 128, #loads occupied: 0
  90000: system.cpu.iew.lsq.thread0: Load Queue:
  90000: system.cpu.iew: IQ has 64 free entries (Can schedule: 0).  LQ has 128 free entries. SQ has 128 free entries.
  90500: system.cpu.iew: Issue: Processing [tid:0]
  90500: system.cpu.iew: [tid:0] Not blocked, so attempting to run dispatch.
  90500: system.cpu.iew: [tid:0] Getting list of reinsertion ready instructions from WIB
  90500: system.cpu.rob: [tid:0] Finding oldest ready instructions in WIB.
  90500: system.cpu.rob: [tid:0] WIB Read Cycle - even:1
  90500: system.cpu.iew: [tid:0] There are 0 reinsertion ready instructions from WIB
  90500: system.cpu.iq: Attempting to schedule ready instructions from the IQ.
  90500: system.cpu.iq: Not able to schedule any instructions.
  90500: system.cpu.iew: Processing [tid:0]
  90500: system.cpu.iew: [tid:0], Dispatch dispatched 0 instructions.
  90500: system.cpu.iew.lsq.thread0: SQ size: 128, #stores occupied: 0
  90500: system.cpu.iew.lsq.thread0: LQ size: 128, #loads occupied: 0
  90500: system.cpu.iew.lsq.thread0: Load Queue:
  90500: system.cpu.iew: IQ has 64 free entries (Can schedule: 0).  LQ has 128 free entries. SQ has 128 free entries.
  90500: system.cpu.rob: Adding inst PC (0x401ef4=>0x401ef8).(0=>1) to the ROB.
  90500: system.cpu.rob: [tid:0] Now has 1 instructions.
  90500: system.cpu.rob: Adding inst PC (0x401ef8=>0x401efc).(0=>1) to the ROB.
  90500: system.cpu.rob: [tid:0] Now has 2 instructions.
  90500: system.cpu.rob: Adding inst PC (0x401efc=>0x401f00).(0=>1) to the ROB.
  90500: system.cpu.rob: [tid:0] Now has 3 instructions.
  90500: system.cpu.rob: [tid:0] Checking if head is ready. ROB size=3. [sn:1]
  90500: system.cpu.rob: [tid:0] Reading Head Instr.
  90500: system.cpu.rob: [tid:0] Reading Head Instr.
  91000: system.cpu.iew: Issue: Processing [tid:0]
  91000: system.cpu.iew: [tid:0] Not blocked, so attempting to run dispatch.
  91000: system.cpu.iew: [tid:0] Getting list of reinsertion ready instructions from WIB
  91000: system.cpu.rob: [tid:0] Finding oldest ready instructions in WIB.
  91000: system.cpu.rob: [tid:0] WIB Read Cycle - even:0
  91000: system.cpu.iew: [tid:0] There are 0 reinsertion ready instructions from WIB
  91000: system.cpu.iew: [tid:0] Issue: Adding PC (0x401ef4=>0x401ef8).(0=>1) [sn:1] [tid:0] to IQ.
  91000: system.cpu.iq: Adding instruction [sn:1] PC (0x401ef4=>0x401ef8).(0=>1) to the IQ.
  91000: system.cpu.iq: Instruction PC (0x401ef4=>0x401ef8).(0=>1) has dest reg 42 (IntRegClass) that is being added as the producer to the dependency chain.
  91000: system.cpu.iq: Instruction is ready to issue, putting it onto the ready list, PC (0x401ef4=>0x401ef8).(0=>1) opclass:1 [sn:1].
  91000: system.cpu.iew: [tid:0] Issue: Adding PC (0x401ef8=>0x401efc).(0=>1) [sn:2] [tid:0] to IQ.
  91000: system.cpu.iq: Adding instruction [sn:2] PC (0x401ef8=>0x401efc).(0=>1) to the IQ.
  91000: system.cpu.iq: Instruction PC (0x401ef8=>0x401efc).(0=>1) has dest reg 43 (IntRegClass) that is being added as the producer to the dependency chain.
  91000: system.cpu.iq: Instruction is ready to issue, putting it onto the ready list, PC (0x401ef8=>0x401efc).(0=>1) opclass:1 [sn:2].
  91000: system.cpu.iew: [tid:0] Issue: Adding PC (0x401efc=>0x401f00).(0=>1) [sn:3] [tid:0] to IQ.
  91000: system.cpu.iq: Adding instruction [sn:3] PC (0x401efc=>0x401f00).(0=>1) to the IQ.
  91000: system.cpu.iq: Instruction PC (0x401efc=>0x401f00).(0=>1) has dest reg 44 (IntRegClass) that is being added as the producer to the dependency chain.
  91000: system.cpu.iq: Instruction is ready to issue, putting it onto the ready list, PC (0x401efc=>0x401f00).(0=>1) opclass:1 [sn:3].
  91000: system.cpu.iq: Attempting to schedule ready instructions from the IQ.
  91000: system.cpu.iq: Thread 0: Issuing instruction PC (0x401ef4=>0x401ef8).(0=>1) [sn:1]
  91000: system.cpu.iq: Thread 0: Issuing instruction PC (0x401ef8=>0x401efc).(0=>1) [sn:2]
  91000: system.cpu.iq: Thread 0: Issuing instruction PC (0x401efc=>0x401f00).(0=>1) [sn:3]
  91000: system.cpu.iew: Processing [tid:0]
  91000: system.cpu.iew: [tid:0], Dispatch dispatched 3 instructions.
  91000: system.cpu.iew.lsq.thread0: SQ size: 128, #stores occupied: 0
  91000: system.cpu.iew.lsq.thread0: LQ size: 128, #loads occupied: 0
  91000: system.cpu.iew.lsq.thread0: Load Queue:
  91000: system.cpu.iew: IQ has 64 free entries (Can schedule: 0).  LQ has 128 free entries. SQ has 128 free entries.
  91000: system.cpu.rob: [tid:0] Checking if head is ready. ROB size=3. [sn:1]
  91000: system.cpu.rob: [tid:0] Reading Head Instr.
  91000: system.cpu.rob: [tid:0] Reading Head Instr.
  91500: system.cpu.iew: Issue: Processing [tid:0]
  91500: system.cpu.iew: [tid:0] Not blocked, so attempting to run dispatch.
  91500: system.cpu.iew: [tid:0] Getting list of reinsertion ready instructions from WIB
  91500: system.cpu.rob: [tid:0] Finding oldest ready instructions in WIB.
  91500: system.cpu.rob: [tid:0] WIB Read Cycle - even:1
  91500: system.cpu.iew: [tid:0] There are 0 reinsertion ready instructions from WIB
  91500: system.cpu.iew: Execute: Executing instructions from IQ.
  91500: system.cpu.iew: Execute: Processing PC (0x401ef4=>0x401ef8).(0=>1), [tid:0] [sn:1].
  91500: global: RegFile: Setting int register 42 to 0
  91500: system.cpu.iew: Current wb cycle: 0, width: 8, numInst: 0
wbActual:0
  91500: system.cpu.iew: Execute: Executing instructions from IQ.
  91500: system.cpu.iew: Execute: Processing PC (0x401ef8=>0x401efc).(0=>1), [tid:0] [sn:2].
  91500: global: RegFile: Setting int register 43 to 0
  91500: system.cpu.iew: Current wb cycle: 0, width: 8, numInst: 1
wbActual:1
  91500: system.cpu.iew: Execute: Executing instructions from IQ.
  91500: system.cpu.iew: Execute: Processing PC (0x401efc=>0x401f00).(0=>1), [tid:0] [sn:3].
  91500: global: RegFile: Access to int register 0, has data 0
  91500: global: RegFile: Setting int register 44 to 0
  91500: system.cpu.iew: Current wb cycle: 0, width: 8, numInst: 2
wbActual:2
  91500: system.cpu.iew: Sending instructions to commit, [sn:1] PC (0x401ef4=>0x401ef8).(0=>1).
  91500: system.cpu.iq: Waking dependents of completed instruction.
  91500: system.cpu.iq: Waking any dependents on register 42 (IntRegClass).
  91500: system.cpu.iew: Setting Destination Register 42 (IntRegClass)
  91500: system.cpu.iew: Sending instructions to commit, [sn:2] PC (0x401ef8=>0x401efc).(0=>1).
  91500: system.cpu.iq: Waking dependents of completed instruction.
  91500: system.cpu.iq: Waking any dependents on register 43 (IntRegClass).
  91500: system.cpu.iew: Setting Destination Register 43 (IntRegClass)
  91500: system.cpu.iew: Sending instructions to commit, [sn:3] PC (0x401efc=>0x401f00).(0=>1).
  91500: system.cpu.iq: Waking dependents of completed instruction.
  91500: system.cpu.iq: Waking any dependents on register 44 (IntRegClass).
  91500: system.cpu.iew: Setting Destination Register 44 (IntRegClass)
  91500: system.cpu.iq: Attempting to schedule ready instructions from the IQ.
  91500: system.cpu.iq: Not able to schedule any instructions.
  91500: system.cpu.iew: Processing [tid:0]
  91500: system.cpu.iew.lsq.thread0: LQ size: 128, #loads occupied: 0
  91500: system.cpu.iew.lsq.thread0: Load Queue:
  91500: system.cpu.iew.lsq.thread0: SQ size: 128, #stores occupied: 0
  91500: system.cpu.iew: [tid:0], Dispatch dispatched 0 instructions.
  91500: system.cpu.iew.lsq.thread0: SQ size: 128, #stores occupied: 0
  91500: system.cpu.iew.lsq.thread0: LQ size: 128, #loads occupied: 0
  91500: system.cpu.iew.lsq.thread0: Load Queue:
  91500: system.cpu.iew: IQ has 64 free entries (Can schedule: 0).  LQ has 128 free entries. SQ has 128 free entries.
  91500: system.cpu.rob: [tid:0] Checking if head is ready. ROB size=3. [sn:1]
  91500: system.cpu.rob: [tid:0] Reading Head Instr.
  91500: system.cpu.rob: [tid:0] Reading Head Instr.
  92000: system.cpu.iew: Issue: Processing [tid:0]
  92000: system.cpu.iew: [tid:0] Not blocked, so attempting to run dispatch.
  92000: system.cpu.iew: [tid:0] Getting list of reinsertion ready instructions from WIB
  92000: system.cpu.rob: [tid:0] Finding oldest ready instructions in WIB.
  92000: system.cpu.rob: [tid:0] WIB Read Cycle - even:0
  92000: system.cpu.iew: [tid:0] There are 0 reinsertion ready instructions from WIB
  92000: system.cpu.iq: Attempting to schedule ready instructions from the IQ.
  92000: system.cpu.iq: Not able to schedule any instructions.
  92000: system.cpu.iew: Processing [tid:0]
  92000: system.cpu.iew: [tid:0], Dispatch dispatched 0 instructions.
  92000: system.cpu.iew.lsq.thread0: SQ size: 128, #stores occupied: 0
  92000: system.cpu.iew.lsq.thread0: LQ size: 128, #loads occupied: 0
  92000: system.cpu.iew.lsq.thread0: Load Queue:
  92000: system.cpu.iew: IQ has 64 free entries (Can schedule: 0).  LQ has 128 free entries. SQ has 128 free entries.
  92000: system.cpu.rob: [tid:0] Checking if head is ready. ROB size=3. [sn:1]
  92000: system.cpu.rob: [tid:0] Reading Head Instr.
  92000: system.cpu.rob: [tid:0] Reading Head Instr.
  92500: system.cpu.iew: Issue: Processing [tid:0]
  92500: system.cpu.iew: [tid:0] Not blocked, so attempting to run dispatch.
  92500: system.cpu.iew: [tid:0] Getting list of reinsertion ready instructions from WIB
  92500: system.cpu.rob: [tid:0] Finding oldest ready instructions in WIB.
  92500: system.cpu.rob: [tid:0] WIB Read Cycle - even:1
  92500: system.cpu.iew: [tid:0] There are 0 reinsertion ready instructions from WIB
  92500: system.cpu.iq: Attempting to schedule ready instructions from the IQ.
  92500: system.cpu.iq: Not able to schedule any instructions.
  92500: system.cpu.iew: Processing [tid:0]
  92500: system.cpu.iew: [tid:0], Dispatch dispatched 0 instructions.
  92500: system.cpu.iew.lsq.thread0: SQ size: 128, #stores occupied: 0
  92500: system.cpu.iew.lsq.thread0: LQ size: 128, #loads occupied: 0
  92500: system.cpu.iew.lsq.thread0: Load Queue:
  92500: system.cpu.iew: IQ has 64 free entries (Can schedule: 0).  LQ has 128 free entries. SQ has 128 free entries.
  92500: system.cpu.rob: [tid:0] Checking if head is ready. ROB size=3. [sn:1]
  92500: system.cpu.rob: [tid:0] Reading Head Instr.
  92500: system.cpu.rob: [tid:0] Retiring head instruction, instruction PC (0x401ef4=>0x401ef8).(0=>1), [sn:1]
  92500: system.cpu.rob: Updating global head ptr.
  92500: system.cpu.rob: [tid:0] Checking if head is ready. ROB size=2. [sn:2]
  92500: system.cpu.rob: [tid:0] Reading Head Instr.
  92500: system.cpu.rob: [tid:0] Retiring head instruction, instruction PC (0x401ef8=>0x401efc).(0=>1), [sn:2]
  92500: system.cpu.rob: Updating global head ptr.
  92500: system.cpu.rob: [tid:0] Checking if head is ready. ROB size=1. [sn:3]
  92500: system.cpu.rob: [tid:0] Reading Head Instr.
  92500: system.cpu.rob: [tid:0] Retiring head instruction, instruction PC (0x401efc=>0x401f00).(0=>1), [sn:3]
  92500: system.cpu.rob: Updating global head ptr.
  93000: system.cpu.iew: Issue: Processing [tid:0]
  93000: system.cpu.iew: [tid:0] Not blocked, so attempting to run dispatch.
  93000: system.cpu.iew: [tid:0] Getting list of reinsertion ready instructions from WIB
  93000: system.cpu.rob: [tid:0] Finding oldest ready instructions in WIB.
  93000: system.cpu.rob: [tid:0] WIB Read Cycle - even:0
  93000: system.cpu.iew: [tid:0] There are 0 reinsertion ready instructions from WIB
  93000: system.cpu.iq: Attempting to schedule ready instructions from the IQ.
  93000: system.cpu.iq: Not able to schedule any instructions.
  93000: system.cpu.iew: Processing [tid:0]
  93000: system.cpu.iq: [tid:0] Committing instructions older than [sn:3]
  93000: system.cpu.iq: [tid:0] Removing instruction [sn:1] from IQ
  93000: system.cpu.iq: [tid:0] Removing instruction [sn:2] from IQ
  93000: system.cpu.iq: [tid:0] Removing instruction [sn:3] from IQ
  93000: system.cpu.iew: [tid:0], Dispatch dispatched 0 instructions.
  93000: system.cpu.iew.lsq.thread0: SQ size: 128, #stores occupied: 0
  93000: system.cpu.iew.lsq.thread0: LQ size: 128, #loads occupied: 0
  93000: system.cpu.iew.lsq.thread0: Load Queue:
  93000: system.cpu.iew: IQ has 64 free entries (Can schedule: 0).  LQ has 128 free entries. SQ has 128 free entries.
  93500: system.cpu.iew: Issue: Processing [tid:0]
  93500: system.cpu.iew: [tid:0] Not blocked, so attempting to run dispatch.
  93500: system.cpu.iew: [tid:0] Getting list of reinsertion ready instructions from WIB
  93500: system.cpu.rob: [tid:0] Finding oldest ready instructions in WIB.
  93500: system.cpu.rob: [tid:0] WIB Read Cycle - even:1
  93500: system.cpu.iew: [tid:0] There are 0 reinsertion ready instructions from WIB
  93500: system.cpu.iq: Attempting to schedule ready instructions from the IQ.
  93500: system.cpu.iq: Not able to schedule any instructions.
  93500: system.cpu.iew: Processing [tid:0]
  93500: system.cpu.iew.lsq.thread0: LQ size: 128, #loads occupied: 0
  93500: system.cpu.iew.lsq.thread0: Load Queue:
  93500: system.cpu.iew.lsq.thread0: SQ size: 128, #stores occupied: 0
  93500: system.cpu.iew: [tid:0], Dispatch dispatched 0 instructions.
  93500: system.cpu.iew.lsq.thread0: SQ size: 128, #stores occupied: 0
  93500: system.cpu.iew.lsq.thread0: LQ size: 128, #loads occupied: 0
  93500: system.cpu.iew.lsq.thread0: Load Queue:
  93500: system.cpu.iew: IQ has 64 free entries (Can schedule: 0).  LQ has 128 free entries. SQ has 128 free entries.
  94000: system.cpu.iew: Issue: Processing [tid:0]
  94000: system.cpu.iew: [tid:0] Not blocked, so attempting to run dispatch.
  94000: system.cpu.iew: [tid:0] Getting list of reinsertion ready instructions from WIB
  94000: system.cpu.rob: [tid:0] Finding oldest ready instructions in WIB.
  94000: system.cpu.rob: [tid:0] WIB Read Cycle - even:0
  94000: system.cpu.iew: [tid:0] There are 0 reinsertion ready instructions from WIB
  94000: system.cpu.iq: Attempting to schedule ready instructions from the IQ.
  94000: system.cpu.iq: Not able to schedule any instructions.
  94000: system.cpu.iew: Processing [tid:0]
  94000: system.cpu.iew: [tid:0], Dispatch dispatched 0 instructions.
  94000: system.cpu.iew.lsq.thread0: SQ size: 128, #stores occupied: 0
  94000: system.cpu.iew.lsq.thread0: LQ size: 128, #loads occupied: 0
  94000: system.cpu.iew.lsq.thread0: Load Queue:
  94000: system.cpu.iew: IQ has 64 free entries (Can schedule: 0).  LQ has 128 free entries. SQ has 128 free entries.
  94500: system.cpu.iew: Issue: Processing [tid:0]
  94500: system.cpu.iew: [tid:0] Not blocked, so attempting to run dispatch.
  94500: system.cpu.iew: [tid:0] Getting list of reinsertion ready instructions from WIB
  94500: system.cpu.rob: [tid:0] Finding oldest ready instructions in WIB.
  94500: system.cpu.rob: [tid:0] WIB Read Cycle - even:1
  94500: system.cpu.iew: [tid:0] There are 0 reinsertion ready instructions from WIB
  94500: system.cpu.iq: Attempting to schedule ready instructions from the IQ.
  94500: system.cpu.iq: Not able to schedule any instructions.
  94500: system.cpu.iew: Processing [tid:0]
  94500: system.cpu.iew: [tid:0], Dispatch dispatched 0 instructions.
  94500: system.cpu.iew.lsq.thread0: SQ size: 128, #stores occupied: 0
  94500: system.cpu.iew.lsq.thread0: LQ size: 128, #loads occupied: 0
  94500: system.cpu.iew.lsq.thread0: Load Queue:
  94500: system.cpu.iew: IQ has 64 free entries (Can schedule: 0).  LQ has 128 free entries. SQ has 128 free entries.
  95000: system.cpu.iew: Issue: Processing [tid:0]
  95000: system.cpu.iew: [tid:0] Not blocked, so attempting to run dispatch.
  95000: system.cpu.iew: [tid:0] Getting list of reinsertion ready instructions from WIB
  95000: system.cpu.rob: [tid:0] Finding oldest ready instructions in WIB.
  95000: system.cpu.rob: [tid:0] WIB Read Cycle - even:0
  95000: system.cpu.iew: [tid:0] There are 0 reinsertion ready instructions from WIB
  95000: system.cpu.iq: Attempting to schedule ready instructions from the IQ.
  95000: system.cpu.iq: Not able to schedule any instructions.
  95000: system.cpu.iew: Processing [tid:0]
  95000: system.cpu.iew: [tid:0], Dispatch dispatched 0 instructions.
  95000: system.cpu.iew.lsq.thread0: SQ size: 128, #stores occupied: 0
  95000: system.cpu.iew.lsq.thread0: LQ size: 128, #loads occupied: 0
  95000: system.cpu.iew.lsq.thread0: Load Queue:
  95000: system.cpu.iew: IQ has 64 free entries (Can schedule: 0).  LQ has 128 free entries. SQ has 128 free entries.
  95500: system.cpu.iew: Issue: Processing [tid:0]
  95500: system.cpu.iew: [tid:0] Not blocked, so attempting to run dispatch.
  95500: system.cpu.iew: [tid:0] Getting list of reinsertion ready instructions from WIB
  95500: system.cpu.rob: [tid:0] Finding oldest ready instructions in WIB.
  95500: system.cpu.rob: [tid:0] WIB Read Cycle - even:1
  95500: system.cpu.iew: [tid:0] There are 0 reinsertion ready instructions from WIB
  95500: system.cpu.iq: Attempting to schedule ready instructions from the IQ.
  95500: system.cpu.iq: Not able to schedule any instructions.
  95500: system.cpu.iew: Processing [tid:0]
  95500: system.cpu.iew: [tid:0], Dispatch dispatched 0 instructions.
  95500: system.cpu.iew.lsq.thread0: SQ size: 128, #stores occupied: 0
  95500: system.cpu.iew.lsq.thread0: LQ size: 128, #loads occupied: 0
  95500: system.cpu.iew.lsq.thread0: Load Queue:
  95500: system.cpu.iew: IQ has 64 free entries (Can schedule: 0).  LQ has 128 free entries. SQ has 128 free entries.
  96000: system.cpu.iew: Issue: Processing [tid:0]
  96000: system.cpu.iew: [tid:0] Not blocked, so attempting to run dispatch.
  96000: system.cpu.iew: [tid:0] Getting list of reinsertion ready instructions from WIB
  96000: system.cpu.rob: [tid:0] Finding oldest ready instructions in WIB.
  96000: system.cpu.rob: [tid:0] WIB Read Cycle - even:0
  96000: system.cpu.iew: [tid:0] There are 0 reinsertion ready instructions from WIB
  96000: system.cpu.iq: Attempting to schedule ready instructions from the IQ.
  96000: system.cpu.iq: Not able to schedule any instructions.
  96000: system.cpu.iew: Processing [tid:0]
  96000: system.cpu.iew: [tid:0], Dispatch dispatched 0 instructions.
  96000: system.cpu.iew.lsq.thread0: SQ size: 128, #stores occupied: 0
  96000: system.cpu.iew.lsq.thread0: LQ size: 128, #loads occupied: 0
  96000: system.cpu.iew.lsq.thread0: Load Queue:
  96000: system.cpu.iew: IQ has 64 free entries (Can schedule: 0).  LQ has 128 free entries. SQ has 128 free entries.
  96500: system.cpu.iew: Issue: Processing [tid:0]
  96500: system.cpu.iew: [tid:0] Not blocked, so attempting to run dispatch.
  96500: system.cpu.iew: [tid:0] Getting list of reinsertion ready instructions from WIB
  96500: system.cpu.rob: [tid:0] Finding oldest ready instructions in WIB.
  96500: system.cpu.rob: [tid:0] WIB Read Cycle - even:1
  96500: system.cpu.iew: [tid:0] There are 0 reinsertion ready instructions from WIB
  96500: system.cpu.iq: Attempting to schedule ready instructions from the IQ.
  96500: system.cpu.iq: Not able to schedule any instructions.
  96500: system.cpu.iew: Processing [tid:0]
  96500: system.cpu.iew: [tid:0], Dispatch dispatched 0 instructions.
  96500: system.cpu.iew.lsq.thread0: SQ size: 128, #stores occupied: 0
  96500: system.cpu.iew.lsq.thread0: LQ size: 128, #loads occupied: 0
  96500: system.cpu.iew.lsq.thread0: Load Queue:
  96500: system.cpu.iew: IQ has 64 free entries (Can schedule: 0).  LQ has 128 free entries. SQ has 128 free entries.
  97000: system.cpu.iew: Issue: Processing [tid:0]
  97000: system.cpu.iew: [tid:0] Not blocked, so attempting to run dispatch.
  97000: system.cpu.iew: [tid:0] Getting list of reinsertion ready instructions from WIB
  97000: system.cpu.rob: [tid:0] Finding oldest ready instructions in WIB.
  97000: system.cpu.rob: [tid:0] WIB Read Cycle - even:0
  97000: system.cpu.iew: [tid:0] There are 0 reinsertion ready instructions from WIB
  97000: system.cpu.iq: Attempting to schedule ready instructions from the IQ.
  97000: system.cpu.iq: Not able to schedule any instructions.
  97000: system.cpu.iew: Processing [tid:0]
  97000: system.cpu.iew: [tid:0], Dispatch dispatched 0 instructions.
  97000: system.cpu.iew.lsq.thread0: SQ size: 128, #stores occupied: 0
  97000: system.cpu.iew.lsq.thread0: LQ size: 128, #loads occupied: 0
  97000: system.cpu.iew.lsq.thread0: Load Queue:
  97000: system.cpu.iew: IQ has 64 free entries (Can schedule: 0).  LQ has 128 free entries. SQ has 128 free entries.
  97500: system.cpu.iew: Issue: Processing [tid:0]
  97500: system.cpu.iew: [tid:0] Not blocked, so attempting to run dispatch.
  97500: system.cpu.iew: [tid:0] Getting list of reinsertion ready instructions from WIB
  97500: system.cpu.rob: [tid:0] Finding oldest ready instructions in WIB.
  97500: system.cpu.rob: [tid:0] WIB Read Cycle - even:1
  97500: system.cpu.iew: [tid:0] There are 0 reinsertion ready instructions from WIB
  97500: system.cpu.iq: Attempting to schedule ready instructions from the IQ.
  97500: system.cpu.iq: Not able to schedule any instructions.
  97500: system.cpu.iew: Processing [tid:0]
  97500: system.cpu.iew: [tid:0], Dispatch dispatched 0 instructions.
  97500: system.cpu.iew.lsq.thread0: SQ size: 128, #stores occupied: 0
  97500: system.cpu.iew.lsq.thread0: LQ size: 128, #loads occupied: 0
  97500: system.cpu.iew.lsq.thread0: Load Queue:
  97500: system.cpu.iew: IQ has 64 free entries (Can schedule: 0).  LQ has 128 free entries. SQ has 128 free entries.
  98000: system.cpu.iew: Issue: Processing [tid:0]
  98000: system.cpu.iew: [tid:0] Not blocked, so attempting to run dispatch.
  98000: system.cpu.iew: [tid:0] Getting list of reinsertion ready instructions from WIB
  98000: system.cpu.rob: [tid:0] Finding oldest ready instructions in WIB.
  98000: system.cpu.rob: [tid:0] WIB Read Cycle - even:0
  98000: system.cpu.iew: [tid:0] There are 0 reinsertion ready instructions from WIB
  98000: system.cpu.iq: Attempting to schedule ready instructions from the IQ.
  98000: system.cpu.iq: Not able to schedule any instructions.
  98000: system.cpu.iew: Processing [tid:0]
  98000: system.cpu.iew: [tid:0], Dispatch dispatched 0 instructions.
  98000: system.cpu.iew.lsq.thread0: SQ size: 128, #stores occupied: 0
  98000: system.cpu.iew.lsq.thread0: LQ size: 128, #loads occupied: 0
  98000: system.cpu.iew.lsq.thread0: Load Queue:
  98000: system.cpu.iew: IQ has 64 free entries (Can schedule: 0).  LQ has 128 free entries. SQ has 128 free entries.
  98500: system.cpu.iew: Issue: Processing [tid:0]
  98500: system.cpu.iew: [tid:0] Not blocked, so attempting to run dispatch.
  98500: system.cpu.iew: [tid:0] Getting list of reinsertion ready instructions from WIB
  98500: system.cpu.rob: [tid:0] Finding oldest ready instructions in WIB.
  98500: system.cpu.rob: [tid:0] WIB Read Cycle - even:1
  98500: system.cpu.iew: [tid:0] There are 0 reinsertion ready instructions from WIB
  98500: system.cpu.iq: Attempting to schedule ready instructions from the IQ.
  98500: system.cpu.iq: Not able to schedule any instructions.
  98500: system.cpu.iew: Processing [tid:0]
  98500: system.cpu.iew: [tid:0], Dispatch dispatched 0 instructions.
  98500: system.cpu.iew.lsq.thread0: SQ size: 128, #stores occupied: 0
  98500: system.cpu.iew.lsq.thread0: LQ size: 128, #loads occupied: 0
  98500: system.cpu.iew.lsq.thread0: Load Queue:
  98500: system.cpu.iew: IQ has 64 free entries (Can schedule: 0).  LQ has 128 free entries. SQ has 128 free entries.
 161500: system.cpu.iew: Issue: Processing [tid:0]
 161500: system.cpu.iew: [tid:0] Not blocked, so attempting to run dispatch.
 161500: system.cpu.iew: [tid:0] Getting list of reinsertion ready instructions from WIB
 161500: system.cpu.rob: [tid:0] Finding oldest ready instructions in WIB.
 161500: system.cpu.rob: [tid:0] WIB Read Cycle - even:0
 161500: system.cpu.iew: [tid:0] There are 0 reinsertion ready instructions from WIB
 161500: system.cpu.iq: Attempting to schedule ready instructions from the IQ.
 161500: system.cpu.iq: Not able to schedule any instructions.
 161500: system.cpu.iew: Processing [tid:0]
 161500: system.cpu.iew: [tid:0], Dispatch dispatched 0 instructions.
 161500: system.cpu.iew.lsq.thread0: SQ size: 128, #stores occupied: 0
 161500: system.cpu.iew.lsq.thread0: LQ size: 128, #loads occupied: 0
 161500: system.cpu.iew.lsq.thread0: Load Queue:
 161500: system.cpu.iew: IQ has 64 free entries (Can schedule: 0).  LQ has 128 free entries. SQ has 128 free entries.
 162000: system.cpu.iew: Issue: Processing [tid:0]
 162000: system.cpu.iew: [tid:0] Not blocked, so attempting to run dispatch.
 162000: system.cpu.iew: [tid:0] Getting list of reinsertion ready instructions from WIB
 162000: system.cpu.rob: [tid:0] Finding oldest ready instructions in WIB.
 162000: system.cpu.rob: [tid:0] WIB Read Cycle - even:1
 162000: system.cpu.iew: [tid:0] There are 0 reinsertion ready instructions from WIB
 162000: system.cpu.iq: Attempting to schedule ready instructions from the IQ.
 162000: system.cpu.iq: Not able to schedule any instructions.
 162000: system.cpu.iew: Processing [tid:0]
 162000: system.cpu.iew: [tid:0], Dispatch dispatched 0 instructions.
 162000: system.cpu.iew.lsq.thread0: SQ size: 128, #stores occupied: 0
 162000: system.cpu.iew.lsq.thread0: LQ size: 128, #loads occupied: 0
 162000: system.cpu.iew.lsq.thread0: Load Queue:
 162000: system.cpu.iew: IQ has 64 free entries (Can schedule: 0).  LQ has 128 free entries. SQ has 128 free entries.
 162500: global: [sn:4] has 1 ready out of 1 sources. RTI 0)
 162500: global: [sn:5] has 1 ready out of 1 sources. RTI 0)
 162500: global: [sn:6] has 1 ready out of 1 sources. RTI 0)
 162500: system.cpu.iew: Issue: Processing [tid:0]
 162500: system.cpu.iew: [tid:0] Not blocked, so attempting to run dispatch.
 162500: system.cpu.iew: [tid:0] Getting list of reinsertion ready instructions from WIB
 162500: system.cpu.rob: [tid:0] Finding oldest ready instructions in WIB.
 162500: system.cpu.rob: [tid:0] WIB Read Cycle - even:0
 162500: system.cpu.iew: [tid:0] There are 0 reinsertion ready instructions from WIB
 162500: system.cpu.iq: Attempting to schedule ready instructions from the IQ.
 162500: system.cpu.iq: Not able to schedule any instructions.
 162500: system.cpu.iew: Processing [tid:0]
 162500: system.cpu.iew: [tid:0], Dispatch dispatched 0 instructions.
 162500: system.cpu.iew.lsq.thread0: SQ size: 128, #stores occupied: 0
 162500: system.cpu.iew.lsq.thread0: LQ size: 128, #loads occupied: 0
 162500: system.cpu.iew.lsq.thread0: Load Queue:
 162500: system.cpu.iew: IQ has 64 free entries (Can schedule: 0).  LQ has 128 free entries. SQ has 128 free entries.
 163000: system.cpu.iew: Issue: Processing [tid:0]
 163000: system.cpu.iew: [tid:0] Not blocked, so attempting to run dispatch.
 163000: system.cpu.iew: [tid:0] Getting list of reinsertion ready instructions from WIB
 163000: system.cpu.rob: [tid:0] Finding oldest ready instructions in WIB.
 163000: system.cpu.rob: [tid:0] WIB Read Cycle - even:1
 163000: system.cpu.iew: [tid:0] There are 0 reinsertion ready instructions from WIB
 163000: system.cpu.iq: Attempting to schedule ready instructions from the IQ.
 163000: system.cpu.iq: Not able to schedule any instructions.
 163000: system.cpu.iew: Processing [tid:0]
 163000: system.cpu.iew: [tid:0], Dispatch dispatched 0 instructions.
 163000: system.cpu.iew.lsq.thread0: SQ size: 128, #stores occupied: 0
 163000: system.cpu.iew.lsq.thread0: LQ size: 128, #loads occupied: 0
 163000: system.cpu.iew.lsq.thread0: Load Queue:
 163000: system.cpu.iew: IQ has 64 free entries (Can schedule: 0).  LQ has 128 free entries. SQ has 128 free entries.
 163000: system.cpu.rob: Adding inst PC (0x401f00=>0x401f04).(0=>1) to the ROB.
 163000: system.cpu.rob: [tid:0] Now has 1 instructions.
 163000: system.cpu.rob: Adding inst PC (0x401f04=>0x401f08).(0=>1) to the ROB.
 163000: system.cpu.rob: [tid:0] Now has 2 instructions.
 163000: system.cpu.rob: Adding inst PC (0x401f08=>0x401f0c).(0=>1) to the ROB.
 163000: system.cpu.rob: [tid:0] Now has 3 instructions.
 163000: system.cpu.rob: Adding inst PC (0x401f0c=>0x401f10).(0=>1) to the ROB.
 163000: system.cpu.rob: [tid:0] Now has 4 instructions.
 163000: system.cpu.rob: Adding inst PC (0x401f10=>0x401f14).(0=>1) to the ROB.
 163000: system.cpu.rob: [tid:0] Now has 5 instructions.
 163000: system.cpu.rob: Adding inst PC (0x401f14=>0x401f18).(0=>1) to the ROB.
 163000: system.cpu.rob: [tid:0] Now has 6 instructions.
 163000: system.cpu.rob: Adding inst PC (0x401f18=>0x401f1c).(0=>1) to the ROB.
 163000: system.cpu.rob: [tid:0] Now has 7 instructions.
 163000: system.cpu.rob: Adding inst PC (0x401f1c=>0x401f20).(0=>1) to the ROB.
 163000: system.cpu.rob: [tid:0] Now has 8 instructions.
 163000: system.cpu.rob: [tid:0] Checking if head is ready. ROB size=8. [sn:4]
 163000: system.cpu.rob: [tid:0] Reading Head Instr.
 163000: system.cpu.rob: [tid:0] Reading Head Instr.
 163500: system.cpu.iew: Issue: Processing [tid:0]
 163500: system.cpu.iew: [tid:0] Not blocked, so attempting to run dispatch.
 163500: system.cpu.iew: [tid:0] Getting list of reinsertion ready instructions from WIB
 163500: system.cpu.rob: [tid:0] Finding oldest ready instructions in WIB.
 163500: system.cpu.rob: [tid:0] WIB Read Cycle - even:0
 163500: system.cpu.iew: [tid:0] There are 0 reinsertion ready instructions from WIB
 163500: system.cpu.iew: [tid:0] Issue: Adding PC (0x401f00=>0x401f04).(0=>1) [sn:4] [tid:0] to IQ.
 163500: system.cpu.iew: [tid:0] Issue: Memory instruction encountered, adding to LSQ.
 163500: system.cpu.iew.lsq.thread0: Inserting load PC (0x401f00=>0x401f04).(0=>1), idx:0 [sn:4]
 163500: system.cpu.iq: Adding instruction [sn:4] PC (0x401f00=>0x401f04).(0=>1) to the IQ.
 163500: system.cpu.iq: Instruction PC (0x401f00=>0x401f04).(0=>1) has dest reg 45 (IntRegClass) that is being added as the producer to the dependency chain.
 163500: system.cpu.memDep0: No dependency for inst PC (0x401f00=>0x401f04).(0=>1) [sn:4].
 163500: system.cpu.memDep0: Adding instruction [sn:4] to the ready list.
 163500: system.cpu.iq: Instruction is ready to issue, putting it onto the ready list, PC (0x401f00=>0x401f04).(0=>1) opclass:47 [sn:4].
 163500: system.cpu.iew: [tid:0] Issue: Adding PC (0x401f04=>0x401f08).(0=>1) [sn:5] [tid:0] to IQ.
 163500: system.cpu.iq: Adding instruction [sn:5] PC (0x401f04=>0x401f08).(0=>1) to the IQ.
 163500: system.cpu.iq: Instruction PC (0x401f04=>0x401f08).(0=>1) has dest reg 46 (IntRegClass) that is being added as the producer to the dependency chain.
 163500: system.cpu.iq: Instruction is ready to issue, putting it onto the ready list, PC (0x401f04=>0x401f08).(0=>1) opclass:1 [sn:5].
 163500: system.cpu.iew: [tid:0] Issue: Adding PC (0x401f08=>0x401f0c).(0=>1) [sn:6] [tid:0] to IQ.
 163500: system.cpu.iq: Adding instruction [sn:6] PC (0x401f08=>0x401f0c).(0=>1) to the IQ.
 163500: system.cpu.iq: Instruction PC (0x401f08=>0x401f0c).(0=>1) has dest reg 47 (IntRegClass) that is being added as the producer to the dependency chain.
 163500: system.cpu.iq: Instruction is ready to issue, putting it onto the ready list, PC (0x401f08=>0x401f0c).(0=>1) opclass:1 [sn:6].
 163500: system.cpu.iew: [tid:0] Issue: Adding PC (0x401f0c=>0x401f10).(0=>1) [sn:7] [tid:0] to IQ.
 163500: system.cpu.iq: Adding instruction [sn:7] PC (0x401f0c=>0x401f10).(0=>1) to the IQ.
 163500: system.cpu.iq: Instruction PC (0x401f0c=>0x401f10).(0=>1) has dest reg 48 (IntRegClass) that is being added as the producer to the dependency chain.
 163500: system.cpu.iq: Instruction is ready to issue, putting it onto the ready list, PC (0x401f0c=>0x401f10).(0=>1) opclass:1 [sn:7].
 163500: system.cpu.iew: [tid:0] Issue: Adding PC (0x401f10=>0x401f14).(0=>1) [sn:8] [tid:0] to IQ.
 163500: system.cpu.iq: Adding instruction [sn:8] PC (0x401f10=>0x401f14).(0=>1) to the IQ.
 163500: system.cpu.iq: Instruction PC (0x401f10=>0x401f14).(0=>1) has src reg 48 (IntRegClass) that is being added to the dependency chain.
 163500: system.cpu.iq: Instruction PC (0x401f10=>0x401f14).(0=>1) has dest reg 49 (IntRegClass) that is being added as the producer to the dependency chain.
 163500: system.cpu.iew: [tid:0] Issue: Adding PC (0x401f14=>0x401f18).(0=>1) [sn:9] [tid:0] to IQ.
 163500: system.cpu.iq: Adding instruction [sn:9] PC (0x401f14=>0x401f18).(0=>1) to the IQ.
 163500: system.cpu.iq: Instruction PC (0x401f14=>0x401f18).(0=>1) has src reg 49 (IntRegClass) that is being added to the dependency chain.
 163500: system.cpu.iq: Instruction PC (0x401f14=>0x401f18).(0=>1) has dest reg 50 (IntRegClass) that is being added as the producer to the dependency chain.
 163500: system.cpu.iew: [tid:0] Issue: Adding PC (0x401f18=>0x401f1c).(0=>1) [sn:10] [tid:0] to IQ.
 163500: system.cpu.iq: Adding instruction [sn:10] PC (0x401f18=>0x401f1c).(0=>1) to the IQ.
 163500: system.cpu.iq: Instruction PC (0x401f18=>0x401f1c).(0=>1) has src reg 50 (IntRegClass) that is being added to the dependency chain.
 163500: system.cpu.iq: Instruction PC (0x401f18=>0x401f1c).(0=>1) has dest reg 51 (IntRegClass) that is being added as the producer to the dependency chain.
 163500: system.cpu.iew: [tid:0] Issue: Adding PC (0x401f1c=>0x401f20).(0=>1) [sn:11] [tid:0] to IQ.
 163500: system.cpu.iq: Adding instruction [sn:11] PC (0x401f1c=>0x401f20).(0=>1) to the IQ.
 163500: system.cpu.iq: Instruction PC (0x401f1c=>0x401f20).(0=>1) has dest reg 52 (IntRegClass) that is being added as the producer to the dependency chain.
 163500: system.cpu.iq: Instruction is ready to issue, putting it onto the ready list, PC (0x401f1c=>0x401f20).(0=>1) opclass:1 [sn:11].
 163500: system.cpu.iq: Attempting to schedule ready instructions from the IQ.
 163500: system.cpu.iq: Thread 0: Issuing instruction PC (0x401f00=>0x401f04).(0=>1) [sn:4]
 163500: system.cpu.memDep0: Issuing instruction PC 0x401f00 [sn:4].
 163500: system.cpu.iq: Thread 0: Issuing instruction PC (0x401f04=>0x401f08).(0=>1) [sn:5]
 163500: system.cpu.iq: Thread 0: Issuing instruction PC (0x401f08=>0x401f0c).(0=>1) [sn:6]
 163500: system.cpu.iq: Thread 0: Issuing instruction PC (0x401f0c=>0x401f10).(0=>1) [sn:7]
 163500: system.cpu.iq: Thread 0: Issuing instruction PC (0x401f1c=>0x401f20).(0=>1) [sn:11]
 163500: system.cpu.iew: Processing [tid:0]
 163500: system.cpu.iew: [tid:0], Dispatch dispatched 8 instructions.
 163500: system.cpu.iew.lsq.thread0: SQ size: 128, #stores occupied: 0
 163500: system.cpu.iew.lsq.thread0: LQ size: 128, #loads occupied: 1
 163500: system.cpu.iew.lsq.thread0: Load Queue:
 163500: system.cpu.iew.lsq.thread0: [sn:4] requesting data of size: 0
 163500: system.cpu.iew: IQ has 60 free entries (Can schedule: 0).  LQ has 127 free entries. SQ has 128 free entries.
 163500: system.cpu.rob: Adding inst PC (0x401f20=>0x401f24).(0=>1) to the ROB.
 163500: system.cpu.rob: [tid:0] Now has 9 instructions.
 163500: system.cpu.rob: Adding inst PC (0x401f24=>0x401f28).(0=>1) to the ROB.
 163500: system.cpu.rob: [tid:0] Now has 10 instructions.
 163500: system.cpu.rob: Adding inst PC (0x401f28=>0x401f2c).(0=>1) to the ROB.
 163500: system.cpu.rob: [tid:0] Now has 11 instructions.
 163500: system.cpu.rob: Adding inst PC (0x401f2c=>0x401f30).(0=>1) to the ROB.
 163500: system.cpu.rob: [tid:0] Now has 12 instructions.
 163500: system.cpu.rob: Adding inst PC (0x401f30=>0x401f34).(0=>1) to the ROB.
 163500: system.cpu.rob: [tid:0] Now has 13 instructions.
 163500: system.cpu.rob: Adding inst PC (0x401f34=>0x401f38).(0=>1) to the ROB.
 163500: system.cpu.rob: [tid:0] Now has 14 instructions.
 163500: system.cpu.rob: Adding inst PC (0x401f38=>0x401f3c).(0=>1) to the ROB.
 163500: system.cpu.rob: [tid:0] Now has 15 instructions.
 163500: system.cpu.rob: Adding inst PC (0x401f3c=>0x401f40).(0=>1) to the ROB.
 163500: system.cpu.rob: [tid:0] Now has 16 instructions.
 163500: system.cpu.rob: [tid:0] Checking if head is ready. ROB size=16. [sn:4]
 163500: system.cpu.rob: [tid:0] Reading Head Instr.
 163500: system.cpu.rob: [tid:0] Reading Head Instr.
 164000: system.cpu.iew: Issue: Processing [tid:0]
 164000: system.cpu.iew: [tid:0] Not blocked, so attempting to run dispatch.
 164000: system.cpu.iew: [tid:0] Getting list of reinsertion ready instructions from WIB
 164000: system.cpu.rob: [tid:0] Finding oldest ready instructions in WIB.
 164000: system.cpu.rob: [tid:0] WIB Read Cycle - even:1
 164000: system.cpu.iew: [tid:0] There are 0 reinsertion ready instructions from WIB
 164000: system.cpu.iew: [tid:0] Issue: Adding PC (0x401f20=>0x401f24).(0=>1) [sn:12] [tid:0] to IQ.
 164000: system.cpu.iq: Adding instruction [sn:12] PC (0x401f20=>0x401f24).(0=>1) to the IQ.
 164000: system.cpu.iq: Instruction PC (0x401f20=>0x401f24).(0=>1) has src reg 52 (IntRegClass) that is being added to the dependency chain.
 164000: system.cpu.iq: Instruction PC (0x401f20=>0x401f24).(0=>1) has dest reg 53 (IntRegClass) that is being added as the producer to the dependency chain.
 164000: system.cpu.iew: [tid:0] Issue: Adding PC (0x401f24=>0x401f28).(0=>1) [sn:13] [tid:0] to IQ.
 164000: system.cpu.iq: Adding instruction [sn:13] PC (0x401f24=>0x401f28).(0=>1) to the IQ.
 164000: system.cpu.iq: Instruction PC (0x401f24=>0x401f28).(0=>1) has src reg 53 (IntRegClass) that is being added to the dependency chain.
 164000: system.cpu.iq: Instruction PC (0x401f24=>0x401f28).(0=>1) has dest reg 54 (IntRegClass) that is being added as the producer to the dependency chain.
 164000: system.cpu.iew: [tid:0] Issue: Adding PC (0x401f28=>0x401f2c).(0=>1) [sn:14] [tid:0] to IQ.
 164000: system.cpu.iq: Adding instruction [sn:14] PC (0x401f28=>0x401f2c).(0=>1) to the IQ.
 164000: system.cpu.iq: Instruction PC (0x401f28=>0x401f2c).(0=>1) has src reg 54 (IntRegClass) that is being added to the dependency chain.
 164000: system.cpu.iq: Instruction PC (0x401f28=>0x401f2c).(0=>1) has dest reg 55 (IntRegClass) that is being added as the producer to the dependency chain.
 164000: system.cpu.iew: [tid:0] Issue: Adding PC (0x401f2c=>0x401f30).(0=>1) [sn:15] [tid:0] to IQ.
 164000: system.cpu.iq: Adding instruction [sn:15] PC (0x401f2c=>0x401f30).(0=>1) to the IQ.
 164000: system.cpu.iq: Instruction PC (0x401f2c=>0x401f30).(0=>1) has dest reg 56 (IntRegClass) that is being added as the producer to the dependency chain.
 164000: system.cpu.iq: Instruction is ready to issue, putting it onto the ready list, PC (0x401f2c=>0x401f30).(0=>1) opclass:1 [sn:15].
 164000: system.cpu.iew: [tid:0] Issue: Adding PC (0x401f30=>0x401f34).(0=>1) [sn:16] [tid:0] to IQ.
 164000: system.cpu.iq: Adding instruction [sn:16] PC (0x401f30=>0x401f34).(0=>1) to the IQ.
 164000: system.cpu.iq: Instruction PC (0x401f30=>0x401f34).(0=>1) has src reg 56 (IntRegClass) that is being added to the dependency chain.
 164000: system.cpu.iq: Instruction PC (0x401f30=>0x401f34).(0=>1) has dest reg 57 (IntRegClass) that is being added as the producer to the dependency chain.
 164000: system.cpu.iew: [tid:0] Issue: Adding PC (0x401f34=>0x401f38).(0=>1) [sn:17] [tid:0] to IQ.
 164000: system.cpu.iq: Adding instruction [sn:17] PC (0x401f34=>0x401f38).(0=>1) to the IQ.
 164000: system.cpu.iq: Instruction PC (0x401f34=>0x401f38).(0=>1) has src reg 57 (IntRegClass) that is being added to the dependency chain.
 164000: system.cpu.iq: Instruction PC (0x401f34=>0x401f38).(0=>1) has dest reg 58 (IntRegClass) that is being added as the producer to the dependency chain.
 164000: system.cpu.iew: [tid:0] Issue: Adding PC (0x401f38=>0x401f3c).(0=>1) [sn:18] [tid:0] to IQ.
 164000: system.cpu.iq: Adding instruction [sn:18] PC (0x401f38=>0x401f3c).(0=>1) to the IQ.
 164000: system.cpu.iq: Instruction PC (0x401f38=>0x401f3c).(0=>1) has src reg 58 (IntRegClass) that is being added to the dependency chain.
 164000: system.cpu.iq: Instruction PC (0x401f38=>0x401f3c).(0=>1) has dest reg 59 (IntRegClass) that is being added as the producer to the dependency chain.
 164000: system.cpu.iew: [tid:0] Issue: Adding PC (0x401f3c=>0x401f40).(0=>1) [sn:19] [tid:0] to IQ.
 164000: system.cpu.iq: Adding instruction [sn:19] PC (0x401f3c=>0x401f40).(0=>1) to the IQ.
 164000: system.cpu.iq: Instruction PC (0x401f3c=>0x401f40).(0=>1) has dest reg 60 (IntRegClass) that is being added as the producer to the dependency chain.
 164000: system.cpu.iq: Instruction is ready to issue, putting it onto the ready list, PC (0x401f3c=>0x401f40).(0=>1) opclass:1 [sn:19].
 164000: system.cpu.iew: Execute: Executing instructions from IQ.
 164000: system.cpu.iew: Execute: Processing PC (0x401f00=>0x401f04).(0=>1), [tid:0] [sn:4].
 164000: system.cpu.iew: Execute: Calculating address for memory reference.
 164000: system.cpu.iew.lsq.thread0: Executing load PC (0x401f00=>0x401f04).(0=>1), [sn:4]
 164000: global: RegFile: Access to int register 38, has data 0x7ffffefda0
 164000: system.cpu.iew.lsq.thread0: Read called, load idx: 0, store idx: 1, storeHead: 0 addr: 0x320da0
 164000: system.cpu.iew.lsq.thread0: Doing memory access for inst [sn:4] PC (0x401f00=>0x401f04).(0=>1)
 164000: system.cpu.iew.lsq.thread0: Memory request (pkt: ReadReq [320da0:320da7]) from inst [sn:4] was sent (cache is blocked: 0, cache_got_blocked: 0)
 164000: system.cpu.iew.lsq.thread0: Package sent to cache
 164000: system.cpu.iew.lsq.thread0: Package sent successfully
 164000: system.cpu.rob: [tid:0] Assigned WIB Load Vector Pointer: 0
 164000: system.cpu.iew.lsq.thread0: Got load vector index from WIB
 164000: system.cpu.iew.lsq.thread0: Setting Destination Register wait bit 45 (IntRegClass) with WIB Index (0)
 164000: system.cpu.iew.lsq.thread0: Waking dependents of the missed load instruction
 164000: system.cpu.iew: Execute: Executing instructions from IQ.
 164000: system.cpu.iew: Execute: Processing PC (0x401f04=>0x401f08).(0=>1), [tid:0] [sn:5].
 164000: global: RegFile: Access to int register 38, has data 0x7ffffefda0
 164000: global: RegFile: Setting int register 46 to 0x7ffffefda8
 164000: system.cpu.iew: Current wb cycle: 0, width: 8, numInst: 0
wbActual:0
 164000: system.cpu.iew: Execute: Executing instructions from IQ.
 164000: system.cpu.iew: Execute: Processing PC (0x401f08=>0x401f0c).(0=>1), [tid:0] [sn:6].
 164000: global: RegFile: Access to int register 38, has data 0x7ffffefda0
 164000: global: RegFile: Setting int register 47 to 0x7ffffefda0
 164000: system.cpu.iew: Current wb cycle: 0, width: 8, numInst: 1
wbActual:1
 164000: system.cpu.iew: Execute: Executing instructions from IQ.
 164000: system.cpu.iew: Execute: Processing PC (0x401f0c=>0x401f10).(0=>1), [tid:0] [sn:7].
 164000: global: RegFile: Setting int register 48 to 0
 164000: system.cpu.iew: Current wb cycle: 0, width: 8, numInst: 2
wbActual:2
 164000: system.cpu.iew: Execute: Executing instructions from IQ.
 164000: system.cpu.iew: Execute: Processing PC (0x401f1c=>0x401f20).(0=>1), [tid:0] [sn:11].
 164000: global: RegFile: Setting int register 52 to 0
 164000: system.cpu.iew: Current wb cycle: 0, width: 8, numInst: 3
wbActual:3
 164000: system.cpu.iew: Sending instructions to commit, [sn:5] PC (0x401f04=>0x401f08).(0=>1).
 164000: system.cpu.iq: Waking dependents of completed instruction.
 164000: system.cpu.iq: Waking any dependents on register 46 (IntRegClass).
 164000: system.cpu.iew: Setting Destination Register 46 (IntRegClass)
 164000: system.cpu.iew: Sending instructions to commit, [sn:6] PC (0x401f08=>0x401f0c).(0=>1).
 164000: system.cpu.iq: Waking dependents of completed instruction.
 164000: system.cpu.iq: Waking any dependents on register 47 (IntRegClass).
 164000: system.cpu.iew: Setting Destination Register 47 (IntRegClass)
 164000: system.cpu.iew: Sending instructions to commit, [sn:7] PC (0x401f0c=>0x401f10).(0=>1).
 164000: system.cpu.iq: Waking dependents of completed instruction.
 164000: system.cpu.iq: Waking any dependents on register 48 (IntRegClass).
 164000: system.cpu.iq: Waking up a dependent instruction, [sn:8] PC (0x401f10=>0x401f14).(0=>1).
 164000: global: [sn:8] has 1 ready out of 1 sources. RTI 0)
 164000: system.cpu.iq: Instruction is ready to issue, putting it onto the ready list, PC (0x401f10=>0x401f14).(0=>1) opclass:1 [sn:8].
 164000: system.cpu.iew: Setting Destination Register 48 (IntRegClass)
 164000: system.cpu.iew: Sending instructions to commit, [sn:11] PC (0x401f1c=>0x401f20).(0=>1).
 164000: system.cpu.iq: Waking dependents of completed instruction.
 164000: system.cpu.iq: Waking any dependents on register 52 (IntRegClass).
 164000: system.cpu.iq: Waking up a dependent instruction, [sn:12] PC (0x401f20=>0x401f24).(0=>1).
 164000: global: [sn:12] has 1 ready out of 1 sources. RTI 0)
 164000: system.cpu.iq: Instruction is ready to issue, putting it onto the ready list, PC (0x401f20=>0x401f24).(0=>1) opclass:1 [sn:12].
 164000: system.cpu.iew: Setting Destination Register 52 (IntRegClass)
 164000: system.cpu.iq: Attempting to schedule ready instructions from the IQ.
 164000: system.cpu.iq: Thread 0: Issuing instruction PC (0x401f10=>0x401f14).(0=>1) [sn:8]
 164000: system.cpu.iq: Thread 0: Issuing instruction PC (0x401f20=>0x401f24).(0=>1) [sn:12]
 164000: system.cpu.iq: Thread 0: Issuing instruction PC (0x401f2c=>0x401f30).(0=>1) [sn:15]
 164000: system.cpu.iq: Thread 0: Issuing instruction PC (0x401f3c=>0x401f40).(0=>1) [sn:19]
 164000: system.cpu.iew: Processing [tid:0]
 164000: system.cpu.iew.lsq.thread0: LQ size: 128, #loads occupied: 1
 164000: system.cpu.iew.lsq.thread0: Load Queue:
 164000: system.cpu.iew.lsq.thread0: [sn:4] requesting data of size: 0
 164000: system.cpu.iew.lsq.thread0: SQ size: 128, #stores occupied: 0
 164000: system.cpu.iew: [tid:0], Dispatch dispatched 8 instructions.
 164000: system.cpu.iew.lsq.thread0: SQ size: 128, #stores occupied: 0
 164000: system.cpu.iew.lsq.thread0: LQ size: 128, #loads occupied: 1
 164000: system.cpu.iew.lsq.thread0: Load Queue:
 164000: system.cpu.iew.lsq.thread0: [sn:4] requesting data of size: 0
 164000: system.cpu.iew: IQ has 56 free entries (Can schedule: 0).  LQ has 127 free entries. SQ has 128 free entries.
 164000: system.cpu.rob: [tid:0] Checking if head is ready. ROB size=16. [sn:4]
 164000: system.cpu.rob: [tid:0] Reading Head Instr.
 164000: system.cpu.rob: [tid:0] Reading Head Instr.
 164500: system.cpu.iew: Issue: Processing [tid:0]
 164500: system.cpu.iew: [tid:0] Not blocked, so attempting to run dispatch.
 164500: system.cpu.iew: [tid:0] Getting list of reinsertion ready instructions from WIB
 164500: system.cpu.rob: [tid:0] Finding oldest ready instructions in WIB.
 164500: system.cpu.rob: [tid:0] WIB Read Cycle - even:0
 164500: system.cpu.iew: [tid:0] There are 0 reinsertion ready instructions from WIB
 164500: system.cpu.iew: Execute: Executing instructions from IQ.
 164500: system.cpu.iew: Execute: Processing PC (0x401f10=>0x401f14).(0=>1), [tid:0] [sn:8].
 164500: global: RegFile: Access to int register 48, has data 0
 164500: global: RegFile: Setting int register 49 to 0
 164500: system.cpu.iew: Current wb cycle: 0, width: 8, numInst: 0
wbActual:0
 164500: system.cpu.iew: Execute: Executing instructions from IQ.
 164500: system.cpu.iew: Execute: Processing PC (0x401f20=>0x401f24).(0=>1), [tid:0] [sn:12].
 164500: global: RegFile: Access to int register 52, has data 0
 164500: global: RegFile: Setting int register 53 to 0
 164500: system.cpu.iew: Current wb cycle: 0, width: 8, numInst: 1
wbActual:1
 164500: system.cpu.iew: Execute: Executing instructions from IQ.
 164500: system.cpu.iew: Execute: Processing PC (0x401f2c=>0x401f30).(0=>1), [tid:0] [sn:15].
 164500: global: RegFile: Setting int register 56 to 0
 164500: system.cpu.iew: Current wb cycle: 0, width: 8, numInst: 2
wbActual:2
 164500: system.cpu.iew: Execute: Executing instructions from IQ.
 164500: system.cpu.iew: Execute: Processing PC (0x401f3c=>0x401f40).(0=>1), [tid:0] [sn:19].
 164500: global: RegFile: Setting int register 60 to 0x401f40
 164500: system.cpu.iew: Current wb cycle: 0, width: 8, numInst: 3
wbActual:3
 164500: system.cpu.iew: Sending instructions to commit, [sn:8] PC (0x401f10=>0x401f14).(0=>1).
 164500: system.cpu.iq: Waking dependents of completed instruction.
 164500: system.cpu.iq: Waking any dependents on register 49 (IntRegClass).
 164500: system.cpu.iq: Waking up a dependent instruction, [sn:9] PC (0x401f14=>0x401f18).(0=>1).
 164500: global: [sn:9] has 1 ready out of 1 sources. RTI 0)
 164500: system.cpu.iq: Instruction is ready to issue, putting it onto the ready list, PC (0x401f14=>0x401f18).(0=>1) opclass:1 [sn:9].
 164500: system.cpu.iew: Setting Destination Register 49 (IntRegClass)
 164500: system.cpu.iew: Sending instructions to commit, [sn:12] PC (0x401f20=>0x401f24).(0=>1).
 164500: system.cpu.iq: Waking dependents of completed instruction.
 164500: system.cpu.iq: Waking any dependents on register 53 (IntRegClass).
 164500: system.cpu.iq: Waking up a dependent instruction, [sn:13] PC (0x401f24=>0x401f28).(0=>1).
 164500: global: [sn:13] has 1 ready out of 1 sources. RTI 0)
 164500: system.cpu.iq: Instruction is ready to issue, putting it onto the ready list, PC (0x401f24=>0x401f28).(0=>1) opclass:1 [sn:13].
 164500: system.cpu.iew: Setting Destination Register 53 (IntRegClass)
 164500: system.cpu.iew: Sending instructions to commit, [sn:15] PC (0x401f2c=>0x401f30).(0=>1).
 164500: system.cpu.iq: Waking dependents of completed instruction.
 164500: system.cpu.iq: Waking any dependents on register 56 (IntRegClass).
 164500: system.cpu.iq: Waking up a dependent instruction, [sn:16] PC (0x401f30=>0x401f34).(0=>1).
 164500: global: [sn:16] has 1 ready out of 1 sources. RTI 0)
 164500: system.cpu.iq: Instruction is ready to issue, putting it onto the ready list, PC (0x401f30=>0x401f34).(0=>1) opclass:1 [sn:16].
 164500: system.cpu.iew: Setting Destination Register 56 (IntRegClass)
 164500: system.cpu.iew: Sending instructions to commit, [sn:19] PC (0x401f3c=>0x418500).(0=>1).
 164500: system.cpu.iq: Waking dependents of completed instruction.
 164500: system.cpu.iq: Waking any dependents on register 60 (IntRegClass).
 164500: system.cpu.iew: Setting Destination Register 60 (IntRegClass)
 164500: system.cpu.iq: Attempting to schedule ready instructions from the IQ.
 164500: system.cpu.iq: Thread 0: Issuing instruction PC (0x401f14=>0x401f18).(0=>1) [sn:9]
 164500: system.cpu.iq: Thread 0: Issuing instruction PC (0x401f24=>0x401f28).(0=>1) [sn:13]
 164500: system.cpu.iq: Thread 0: Issuing instruction PC (0x401f30=>0x401f34).(0=>1) [sn:16]
 164500: system.cpu.iew: Processing [tid:0]
 164500: system.cpu.iew.lsq.thread0: LQ size: 128, #loads occupied: 1
 164500: system.cpu.iew.lsq.thread0: Load Queue:
 164500: system.cpu.iew.lsq.thread0: [sn:4] requesting data of size: 0
 164500: system.cpu.iew.lsq.thread0: SQ size: 128, #stores occupied: 0
 164500: system.cpu.iew: [tid:0], Dispatch dispatched 0 instructions.
 164500: system.cpu.iew.lsq.thread0: SQ size: 128, #stores occupied: 0
 164500: system.cpu.iew.lsq.thread0: LQ size: 128, #loads occupied: 1
 164500: system.cpu.iew.lsq.thread0: Load Queue:
 164500: system.cpu.iew.lsq.thread0: [sn:4] requesting data of size: 0
 164500: system.cpu.iew: IQ has 59 free entries (Can schedule: 0).  LQ has 127 free entries. SQ has 128 free entries.
 164500: system.cpu.rob: [tid:0] Checking if head is ready. ROB size=16. [sn:4]
 164500: system.cpu.rob: [tid:0] Reading Head Instr.
 164500: system.cpu.rob: [tid:0] Reading Head Instr.
 165000: system.cpu.iew: Issue: Processing [tid:0]
 165000: system.cpu.iew: [tid:0] Not blocked, so attempting to run dispatch.
 165000: system.cpu.iew: [tid:0] Getting list of reinsertion ready instructions from WIB
 165000: system.cpu.rob: [tid:0] Finding oldest ready instructions in WIB.
 165000: system.cpu.rob: [tid:0] WIB Read Cycle - even:1
 165000: system.cpu.iew: [tid:0] There are 0 reinsertion ready instructions from WIB
 165000: system.cpu.iew: Execute: Executing instructions from IQ.
 165000: system.cpu.iew: Execute: Processing PC (0x401f14=>0x401f18).(0=>1), [tid:0] [sn:9].
 165000: global: RegFile: Access to int register 49, has data 0
 165000: global: RegFile: Setting int register 50 to 0x400000
 165000: system.cpu.iew: Current wb cycle: 0, width: 8, numInst: 0
wbActual:0
 165000: system.cpu.iew: Execute: Executing instructions from IQ.
 165000: system.cpu.iew: Execute: Processing PC (0x401f24=>0x401f28).(0=>1), [tid:0] [sn:13].
 165000: global: RegFile: Access to int register 53, has data 0
 165000: global: RegFile: Setting int register 54 to 0x410000
 165000: system.cpu.iew: Current wb cycle: 0, width: 8, numInst: 1
wbActual:1
 165000: system.cpu.iew: Execute: Executing instructions from IQ.
 165000: system.cpu.iew: Execute: Processing PC (0x401f30=>0x401f34).(0=>1), [tid:0] [sn:16].
 165000: global: RegFile: Access to int register 56, has data 0
 165000: global: RegFile: Setting int register 57 to 0
 165000: system.cpu.iew: Current wb cycle: 0, width: 8, numInst: 2
wbActual:2
 165000: system.cpu.iew: Sending instructions to commit, [sn:9] PC (0x401f14=>0x401f18).(0=>1).
 165000: system.cpu.iq: Waking dependents of completed instruction.
 165000: system.cpu.iq: Waking any dependents on register 50 (IntRegClass).
 165000: system.cpu.iq: Waking up a dependent instruction, [sn:10] PC (0x401f18=>0x401f1c).(0=>1).
 165000: global: [sn:10] has 1 ready out of 1 sources. RTI 0)
 165000: system.cpu.iq: Instruction is ready to issue, putting it onto the ready list, PC (0x401f18=>0x401f1c).(0=>1) opclass:1 [sn:10].
 165000: system.cpu.iew: Setting Destination Register 50 (IntRegClass)
 165000: system.cpu.iew: Sending instructions to commit, [sn:13] PC (0x401f24=>0x401f28).(0=>1).
 165000: system.cpu.iq: Waking dependents of completed instruction.
 165000: system.cpu.iq: Waking any dependents on register 54 (IntRegClass).
 165000: system.cpu.iq: Waking up a dependent instruction, [sn:14] PC (0x401f28=>0x401f2c).(0=>1).
 165000: global: [sn:14] has 1 ready out of 1 sources. RTI 0)
 165000: system.cpu.iq: Instruction is ready to issue, putting it onto the ready list, PC (0x401f28=>0x401f2c).(0=>1) opclass:1 [sn:14].
 165000: system.cpu.iew: Setting Destination Register 54 (IntRegClass)
 165000: system.cpu.iew: Sending instructions to commit, [sn:16] PC (0x401f30=>0x401f34).(0=>1).
 165000: system.cpu.iq: Waking dependents of completed instruction.
 165000: system.cpu.iq: Waking any dependents on register 57 (IntRegClass).
 165000: system.cpu.iq: Waking up a dependent instruction, [sn:17] PC (0x401f34=>0x401f38).(0=>1).
 165000: global: [sn:17] has 1 ready out of 1 sources. RTI 0)
 165000: system.cpu.iq: Instruction is ready to issue, putting it onto the ready list, PC (0x401f34=>0x401f38).(0=>1) opclass:1 [sn:17].
 165000: system.cpu.iew: Setting Destination Register 57 (IntRegClass)
 165000: system.cpu.iq: Attempting to schedule ready instructions from the IQ.
 165000: system.cpu.iq: Thread 0: Issuing instruction PC (0x401f18=>0x401f1c).(0=>1) [sn:10]
 165000: system.cpu.iq: Thread 0: Issuing instruction PC (0x401f28=>0x401f2c).(0=>1) [sn:14]
 165000: system.cpu.iq: Thread 0: Issuing instruction PC (0x401f34=>0x401f38).(0=>1) [sn:17]
 165000: system.cpu.iew: Processing [tid:0]
 165000: system.cpu.iew.lsq.thread0: LQ size: 128, #loads occupied: 1
 165000: system.cpu.iew.lsq.thread0: Load Queue:
 165000: system.cpu.iew.lsq.thread0: [sn:4] requesting data of size: 0
 165000: system.cpu.iew.lsq.thread0: SQ size: 128, #stores occupied: 0
 165000: system.cpu.iew: [tid:0], Dispatch dispatched 0 instructions.
 165000: system.cpu.iew.lsq.thread0: SQ size: 128, #stores occupied: 0
 165000: system.cpu.iew.lsq.thread0: LQ size: 128, #loads occupied: 1
 165000: system.cpu.iew.lsq.thread0: Load Queue:
 165000: system.cpu.iew.lsq.thread0: [sn:4] requesting data of size: 0
 165000: system.cpu.iew: IQ has 62 free entries (Can schedule: 0).  LQ has 127 free entries. SQ has 128 free entries.
 165000: system.cpu.rob: [tid:0] Checking if head is ready. ROB size=16. [sn:4]
 165000: system.cpu.rob: [tid:0] Reading Head Instr.
 165000: system.cpu.rob: [tid:0] Reading Head Instr.
 165500: system.cpu.iew: Issue: Processing [tid:0]
 165500: system.cpu.iew: [tid:0] Not blocked, so attempting to run dispatch.
 165500: system.cpu.iew: [tid:0] Getting list of reinsertion ready instructions from WIB
 165500: system.cpu.rob: [tid:0] Finding oldest ready instructions in WIB.
 165500: system.cpu.rob: [tid:0] WIB Read Cycle - even:0
 165500: system.cpu.iew: [tid:0] There are 0 reinsertion ready instructions from WIB
 165500: system.cpu.iew: Execute: Executing instructions from IQ.
 165500: system.cpu.iew: Execute: Processing PC (0x401f18=>0x401f1c).(0=>1), [tid:0] [sn:10].
 165500: global: RegFile: Access to int register 50, has data 0x400000
 165500: global: RegFile: Setting int register 51 to 0x400500
 165500: system.cpu.iew: Current wb cycle: 0, width: 8, numInst: 0
wbActual:0
 165500: system.cpu.iew: Execute: Executing instructions from IQ.
 165500: system.cpu.iew: Execute: Processing PC (0x401f28=>0x401f2c).(0=>1), [tid:0] [sn:14].
 165500: global: RegFile: Access to int register 54, has data 0x410000
 165500: global: RegFile: Setting int register 55 to 0x418be0
 165500: system.cpu.iew: Current wb cycle: 0, width: 8, numInst: 1
wbActual:1
 165500: system.cpu.iew: Execute: Executing instructions from IQ.
 165500: system.cpu.iew: Execute: Processing PC (0x401f34=>0x401f38).(0=>1), [tid:0] [sn:17].
 165500: global: RegFile: Access to int register 57, has data 0
 165500: global: RegFile: Setting int register 58 to 0x410000
 165500: system.cpu.iew: Current wb cycle: 0, width: 8, numInst: 2
wbActual:2
 165500: system.cpu.iew: Sending instructions to commit, [sn:10] PC (0x401f18=>0x401f1c).(0=>1).
 165500: system.cpu.iq: Waking dependents of completed instruction.
 165500: system.cpu.iq: Waking any dependents on register 51 (IntRegClass).
 165500: system.cpu.iew: Setting Destination Register 51 (IntRegClass)
 165500: system.cpu.iew: Sending instructions to commit, [sn:14] PC (0x401f28=>0x401f2c).(0=>1).
 165500: system.cpu.iq: Waking dependents of completed instruction.
 165500: system.cpu.iq: Waking any dependents on register 55 (IntRegClass).
 165500: system.cpu.iew: Setting Destination Register 55 (IntRegClass)
 165500: system.cpu.iew: Sending instructions to commit, [sn:17] PC (0x401f34=>0x401f38).(0=>1).
 165500: system.cpu.iq: Waking dependents of completed instruction.
 165500: system.cpu.iq: Waking any dependents on register 58 (IntRegClass).
 165500: system.cpu.iq: Waking up a dependent instruction, [sn:18] PC (0x401f38=>0x401f3c).(0=>1).
 165500: global: [sn:18] has 1 ready out of 1 sources. RTI 0)
 165500: system.cpu.iq: Instruction is ready to issue, putting it onto the ready list, PC (0x401f38=>0x401f3c).(0=>1) opclass:1 [sn:18].
 165500: system.cpu.iew: Setting Destination Register 58 (IntRegClass)
 165500: system.cpu.iq: Attempting to schedule ready instructions from the IQ.
 165500: system.cpu.iq: Thread 0: Issuing instruction PC (0x401f38=>0x401f3c).(0=>1) [sn:18]
 165500: system.cpu.iew: Processing [tid:0]
 165500: system.cpu.iew.lsq.thread0: LQ size: 128, #loads occupied: 1
 165500: system.cpu.iew.lsq.thread0: Load Queue:
 165500: system.cpu.iew.lsq.thread0: [sn:4] requesting data of size: 0
 165500: system.cpu.iew.lsq.thread0: SQ size: 128, #stores occupied: 0
 165500: system.cpu.iew: [tid:0], Dispatch dispatched 0 instructions.
 165500: system.cpu.iew.lsq.thread0: SQ size: 128, #stores occupied: 0
 165500: system.cpu.iew.lsq.thread0: LQ size: 128, #loads occupied: 1
 165500: system.cpu.iew.lsq.thread0: Load Queue:
 165500: system.cpu.iew.lsq.thread0: [sn:4] requesting data of size: 0
 165500: system.cpu.iew: IQ has 63 free entries (Can schedule: 0).  LQ has 127 free entries. SQ has 128 free entries.
 165500: system.cpu.rob: [tid:0] Checking if head is ready. ROB size=16. [sn:4]
 165500: system.cpu.rob: [tid:0] Reading Head Instr.
 165500: system.cpu.rob: [tid:0] Reading Head Instr.
 166000: system.cpu.iew: Issue: Processing [tid:0]
 166000: system.cpu.iew: [tid:0] Not blocked, so attempting to run dispatch.
 166000: system.cpu.iew: [tid:0] Getting list of reinsertion ready instructions from WIB
 166000: system.cpu.rob: [tid:0] Finding oldest ready instructions in WIB.
 166000: system.cpu.rob: [tid:0] WIB Read Cycle - even:1
 166000: system.cpu.iew: [tid:0] There are 0 reinsertion ready instructions from WIB
 166000: system.cpu.iew: Execute: Executing instructions from IQ.
 166000: system.cpu.iew: Execute: Processing PC (0x401f38=>0x401f3c).(0=>1), [tid:0] [sn:18].
 166000: global: RegFile: Access to int register 58, has data 0x410000
 166000: global: RegFile: Setting int register 59 to 0x418ca8
 166000: system.cpu.iew: Current wb cycle: 0, width: 8, numInst: 0
wbActual:0
 166000: system.cpu.iew: Sending instructions to commit, [sn:18] PC (0x401f38=>0x401f3c).(0=>1).
 166000: system.cpu.iq: Waking dependents of completed instruction.
 166000: system.cpu.iq: Waking any dependents on register 59 (IntRegClass).
 166000: system.cpu.iew: Setting Destination Register 59 (IntRegClass)
 166000: system.cpu.iq: Attempting to schedule ready instructions from the IQ.
 166000: system.cpu.iq: Not able to schedule any instructions.
 166000: system.cpu.iew: Processing [tid:0]
 166000: system.cpu.iew.lsq.thread0: LQ size: 128, #loads occupied: 1
 166000: system.cpu.iew.lsq.thread0: Load Queue:
 166000: system.cpu.iew.lsq.thread0: [sn:4] requesting data of size: 0
 166000: system.cpu.iew.lsq.thread0: SQ size: 128, #stores occupied: 0
 166000: system.cpu.iew: [tid:0], Dispatch dispatched 0 instructions.
 166000: system.cpu.iew.lsq.thread0: SQ size: 128, #stores occupied: 0
 166000: system.cpu.iew.lsq.thread0: LQ size: 128, #loads occupied: 1
 166000: system.cpu.iew.lsq.thread0: Load Queue:
 166000: system.cpu.iew.lsq.thread0: [sn:4] requesting data of size: 0
 166000: system.cpu.iew: IQ has 63 free entries (Can schedule: 0).  LQ has 127 free entries. SQ has 128 free entries.
 166000: system.cpu.rob: [tid:0] Checking if head is ready. ROB size=16. [sn:4]
 166000: system.cpu.rob: [tid:0] Reading Head Instr.
 166000: system.cpu.rob: [tid:0] Reading Head Instr.
 166500: system.cpu.iew: Issue: Processing [tid:0]
 166500: system.cpu.iew: [tid:0] Not blocked, so attempting to run dispatch.
 166500: system.cpu.iew: [tid:0] Getting list of reinsertion ready instructions from WIB
 166500: system.cpu.rob: [tid:0] Finding oldest ready instructions in WIB.
 166500: system.cpu.rob: [tid:0] WIB Read Cycle - even:0
 166500: system.cpu.iew: [tid:0] There are 0 reinsertion ready instructions from WIB
 166500: system.cpu.iq: Attempting to schedule ready instructions from the IQ.
 166500: system.cpu.iq: Not able to schedule any instructions.
 166500: system.cpu.iew: Processing [tid:0]
 166500: system.cpu.iew: [tid:0], Dispatch dispatched 0 instructions.
 166500: system.cpu.iew.lsq.thread0: SQ size: 128, #stores occupied: 0
 166500: system.cpu.iew.lsq.thread0: LQ size: 128, #loads occupied: 1
[...]
1351500: system.cpu.iew.lsq.thread0: [sn:313] requesting data of size: 0
1351500: system.cpu.iew.lsq.thread0: [sn:361] requesting data of size: 0
1351500: system.cpu.iew.lsq.thread0: [sn:369] requesting data of size: 0
1351500: system.cpu.iew.lsq.thread0: [sn:427] requesting data of size: 0
1351500: system.cpu.iew.lsq.thread0: [sn:432] requesting data of size: 0
1351500: system.cpu.iew.lsq.thread0: [sn:527] requesting data of size: 0
1351500: system.cpu.iew.lsq.thread0: [sn:584] requesting data of size: 0
1351500: system.cpu.iew.lsq.thread0: [sn:600] requesting data of size: 0
1351500: system.cpu.iew.lsq.thread0: [sn:710] requesting data of size: 0
1351500: system.cpu.iew.lsq.thread0: [sn:729] requesting data of size: 0
1351500: system.cpu.iew.lsq.thread0: [sn:871] requesting data of size: 0
1351500: system.cpu.iew.lsq.thread0: [sn:875] requesting data of size: 0
1351500: system.cpu.iew.lsq.thread0: [sn:890] requesting data of size: 0
1351500: system.cpu.iew.lsq.thread0: [sn:892] requesting data of size: 0
1351500: system.cpu.iew.lsq.thread0: [sn:976] requesting data of size: 0
1351500: system.cpu.iew.lsq.thread0: [sn:978] requesting data of size: 0
1351500: system.cpu.iew.lsq.thread0: [sn:980] requesting data of size: 0
1351500: system.cpu.iew.lsq.thread0: [sn:982] requesting data of size: 0
1351500: system.cpu.iew.lsq.thread0: [sn:984] requesting data of size: 0
1351500: system.cpu.iew.lsq.thread0: [sn:986] requesting data of size: 0
1351500: system.cpu.iew.lsq.thread0: [sn:989] requesting data of size: 0
1351500: system.cpu.iew.lsq.thread0: [sn:991] requesting data of size: 0
1351500: system.cpu.iew: IQ has 87 free entries (Can schedule: 0).  LQ has 92 free entries. SQ has 96 free entries.
1351500: system.cpu.rob: [tid:0] Checking if head is ready. ROB size=512. [sn:112]
1351500: system.cpu.rob: [tid:0] Reading Head Instr.
1351500: system.cpu.rob: [tid:0] Reading Head Instr.
1352000: system.cpu.iew: Issue: Processing [tid:0]
1352000: system.cpu.iew: [tid:0] Not blocked, so attempting to run dispatch.
1352000: system.cpu.iew: [tid:0] Getting list of reinsertion ready instructions from WIB
1352000: system.cpu.rob: [tid:0] Finding oldest ready instructions in WIB.
1352000: system.cpu.rob: [tid:0] Checking instruction in WIB. [sn:877]
1352000: system.cpu.rob: WIB: Instruction waiting on loadPtr 14. [sn:877]
1352000: system.cpu.rob: [tid:0] Checking instruction in WIB. [sn:878]
1352000: system.cpu.rob: WIB: Instruction waiting on loadPtr 14. [sn:878]
1352000: system.cpu.rob: [tid:0] Checking instruction in WIB. [sn:879]
1352000: system.cpu.rob: WIB: Instruction waiting on loadPtr 14. [sn:879]
1352000: system.cpu.rob: [tid:0] Checking instruction in WIB. [sn:880]
1352000: system.cpu.rob: WIB: Instruction waiting on loadPtr 14. [sn:880]
1352000: system.cpu.rob: [tid:0] Checking instruction in WIB. [sn:881]
1352000: system.cpu.rob: WIB: Instruction waiting on loadPtr 14. [sn:881]
1352000: system.cpu.rob: [tid:0] Checking instruction in WIB. [sn:882]
1352000: system.cpu.rob: WIB: Instruction waiting on loadPtr 14. [sn:882]
1352000: system.cpu.rob: [tid:0] Checking instruction in WIB. [sn:883]
1352000: system.cpu.rob: WIB: Instruction waiting on loadPtr 14. [sn:883]
1352000: system.cpu.rob: [tid:0] Checking instruction in WIB. [sn:884]
1352000: system.cpu.rob: WIB: Instruction waiting on loadPtr 14. [sn:884]
1352000: system.cpu.rob: [tid:0] Checking instruction in WIB. [sn:885]
1352000: system.cpu.rob: WIB: Instruction waiting on loadPtr 14. [sn:885]
1352000: system.cpu.rob: [tid:0] Checking instruction in WIB. [sn:886]
1352000: system.cpu.rob: WIB: Instruction waiting on loadPtr 14. [sn:886]
1352000: system.cpu.rob: [tid:0] Checking instruction in WIB. [sn:887]
1352000: system.cpu.rob: WIB: Instruction waiting on loadPtr 14. [sn:887]
1352000: system.cpu.rob: [tid:0] Checking instruction in WIB. [sn:891]
1352000: system.cpu.rob: WIB: Instruction waiting on loadPtr 15. [sn:891]
1352000: system.cpu.rob: [tid:0] Checking instruction in WIB. [sn:894]
1352000: system.cpu.rob: WIB: Instruction waiting on loadPtr 16. [sn:894]
1352000: system.cpu.rob: [tid:0] Checking instruction in WIB. [sn:899]
1352000: system.cpu.rob: WIB: Instruction waiting on loadPtr 13. [sn:899]
1352000: system.cpu.rob: [tid:0] Checking instruction in WIB. [sn:977]
1352000: system.cpu.rob: WIB: Instruction waiting on loadPtr 19. [sn:977]
1352000: system.cpu.rob: [tid:0] WIB Read Cycle - even:1
1352000: system.cpu.iew: [tid:0] There are 0 reinsertion ready instructions from WIB
1352000: system.cpu.iq: Attempting to schedule ready instructions from the IQ.
1352000: system.cpu.iq: Not able to schedule any instructions.
1352000: system.cpu.iew: Processing [tid:0]
1352000: system.cpu.iew: [tid:0], Dispatch dispatched 0 instructions.
1352000: system.cpu.iew.lsq.thread0: SQ size: 128, #stores occupied: 32
1352000: system.cpu.iew.lsq.thread0: LQ size: 128, #loads occupied: 36
1352000: system.cpu.iew.lsq.thread0: Load Queue:
1352000: system.cpu.iew.lsq.thread0: [sn:114] requesting data of size: 0
1352000: system.cpu.iew.lsq.thread0: [sn:116] requesting data of size: 0
1352000: system.cpu.iew.lsq.thread0: [sn:118] requesting data of size: 0
1352000: system.cpu.iew.lsq.thread0: [sn:126] requesting data of size: 0
1352000: system.cpu.iew.lsq.thread0: [sn:132] requesting data of size: 0
1352000: system.cpu.iew.lsq.thread0: [sn:137] requesting data of size: 0
1352000: system.cpu.iew.lsq.thread0: [sn:155] requesting data of size: 0
1352000: system.cpu.iew.lsq.thread0: [sn:156] requesting data of size: 0
1352000: system.cpu.iew.lsq.thread0: [sn:157] requesting data of size: 0
1352000: system.cpu.iew.lsq.thread0: [sn:158] requesting data of size: 0
1352000: system.cpu.iew.lsq.thread0: [sn:161] requesting data of size: 0
1352000: system.cpu.iew.lsq.thread0: [sn:210] requesting data of size: 0
1352000: system.cpu.iew.lsq.thread0: [sn:225] requesting data of size: 0
1352000: system.cpu.iew.lsq.thread0: [sn:298] requesting data of size: 0
1352000: system.cpu.iew.lsq.thread0: [sn:313] requesting data of size: 0
1352000: system.cpu.iew.lsq.thread0: [sn:361] requesting data of size: 0
1352000: system.cpu.iew.lsq.thread0: [sn:369] requesting data of size: 0
1352000: system.cpu.iew.lsq.thread0: [sn:427] requesting data of size: 0
1352000: system.cpu.iew.lsq.thread0: [sn:432] requesting data of size: 0
1352000: system.cpu.iew.lsq.thread0: [sn:527] requesting data of size: 0
1352000: system.cpu.iew.lsq.thread0: [sn:584] requesting data of size: 0
1352000: system.cpu.iew.lsq.thread0: [sn:600] requesting data of size: 0
1352000: system.cpu.iew.lsq.thread0: [sn:710] requesting data of size: 0
1352000: system.cpu.iew.lsq.thread0: [sn:729] requesting data of size: 0
1352000: system.cpu.iew.lsq.thread0: [sn:871] requesting data of size: 0
1352000: system.cpu.iew.lsq.thread0: [sn:875] requesting data of size: 0
1352000: system.cpu.iew.lsq.thread0: [sn:890] requesting data of size: 0
1352000: system.cpu.iew.lsq.thread0: [sn:892] requesting data of size: 0
1352000: system.cpu.iew.lsq.thread0: [sn:976] requesting data of size: 0
1352000: system.cpu.iew.lsq.thread0: [sn:978] requesting data of size: 0
1352000: system.cpu.iew.lsq.thread0: [sn:980] requesting data of size: 0
1352000: system.cpu.iew.lsq.thread0: [sn:982] requesting data of size: 0
1352000: system.cpu.iew.lsq.thread0: [sn:984] requesting data of size: 0
1352000: system.cpu.iew.lsq.thread0: [sn:986] requesting data of size: 0
1352000: system.cpu.iew.lsq.thread0: [sn:989] requesting data of size: 0
1352000: system.cpu.iew.lsq.thread0: [sn:991] requesting data of size: 0
1352000: system.cpu.iew: IQ has 87 free entries (Can schedule: 0).  LQ has 92 free entries. SQ has 96 free entries.
1352000: system.cpu.rob: [tid:0] Checking if head is ready. ROB size=512. [sn:112]
1352000: system.cpu.rob: [tid:0] Reading Head Instr.
1352000: system.cpu.rob: [tid:0] Reading Head Instr.
1352500: system.cpu.iew: Issue: Processing [tid:0]
1352500: system.cpu.iew: [tid:0] Not blocked, so attempting to run dispatch.
1352500: system.cpu.iew: [tid:0] Getting list of reinsertion ready instructions from WIB
1352500: system.cpu.rob: [tid:0] Finding oldest ready instructions in WIB.
1352500: system.cpu.rob: [tid:0] Checking instruction in WIB. [sn:877]
1352500: system.cpu.rob: WIB: Instruction waiting on loadPtr 14. [sn:877]
1352500: system.cpu.rob: [tid:0] Checking instruction in WIB. [sn:878]
1352500: system.cpu.rob: WIB: Instruction waiting on loadPtr 14. [sn:878]
1352500: system.cpu.rob: [tid:0] Checking instruction in WIB. [sn:879]
1352500: system.cpu.rob: WIB: Instruction waiting on loadPtr 14. [sn:879]
1352500: system.cpu.rob: [tid:0] Checking instruction in WIB. [sn:880]
1352500: system.cpu.rob: WIB: Instruction waiting on loadPtr 14. [sn:880]
1352500: system.cpu.rob: [tid:0] Checking instruction in WIB. [sn:881]
1352500: system.cpu.rob: WIB: Instruction waiting on loadPtr 14. [sn:881]
1352500: system.cpu.rob: [tid:0] Checking instruction in WIB. [sn:882]
1352500: system.cpu.rob: WIB: Instruction waiting on loadPtr 14. [sn:882]
1352500: system.cpu.rob: [tid:0] Checking instruction in WIB. [sn:883]
1352500: system.cpu.rob: WIB: Instruction waiting on loadPtr 14. [sn:883]
1352500: system.cpu.rob: [tid:0] Checking instruction in WIB. [sn:884]
1352500: system.cpu.rob: WIB: Instruction waiting on loadPtr 14. [sn:884]
1352500: system.cpu.rob: [tid:0] Checking instruction in WIB. [sn:885]
1352500: system.cpu.rob: WIB: Instruction waiting on loadPtr 14. [sn:885]
1352500: system.cpu.rob: [tid:0] Checking instruction in WIB. [sn:886]
1352500: system.cpu.rob: WIB: Instruction waiting on loadPtr 14. [sn:886]
1352500: system.cpu.rob: [tid:0] Checking instruction in WIB. [sn:887]
1352500: system.cpu.rob: WIB: Instruction waiting on loadPtr 14. [sn:887]
1352500: system.cpu.rob: [tid:0] Checking instruction in WIB. [sn:891]
1352500: system.cpu.rob: WIB: Instruction waiting on loadPtr 15. [sn:891]
1352500: system.cpu.rob: [tid:0] Checking instruction in WIB. [sn:894]
1352500: system.cpu.rob: WIB: Instruction waiting on loadPtr 16. [sn:894]
1352500: system.cpu.rob: [tid:0] Checking instruction in WIB. [sn:899]
1352500: system.cpu.rob: WIB: Instruction waiting on loadPtr 13. [sn:899]
1352500: system.cpu.rob: [tid:0] Checking instruction in WIB. [sn:977]
1352500: system.cpu.rob: WIB: Instruction waiting on loadPtr 19. [sn:977]
1352500: system.cpu.rob: [tid:0] WIB Read Cycle - even:0
1352500: system.cpu.iew: [tid:0] There are 0 reinsertion ready instructions from WIB
1352500: system.cpu.iq: Attempting to schedule ready instructions from the IQ.
1352500: system.cpu.iq: Not able to schedule any instructions.
1352500: system.cpu.iew: Processing [tid:0]
1352500: system.cpu.iew: [tid:0], Dispatch dispatched 0 instructions.
1352500: system.cpu.iew.lsq.thread0: SQ size: 128, #stores occupied: 32
1352500: system.cpu.iew.lsq.thread0: LQ size: 128, #loads occupied: 36
1352500: system.cpu.iew.lsq.thread0: Load Queue:
1352500: system.cpu.iew.lsq.thread0: [sn:114] requesting data of size: 0
1352500: system.cpu.iew.lsq.thread0: [sn:116] requesting data of size: 0
1352500: system.cpu.iew.lsq.thread0: [sn:118] requesting data of size: 0
1352500: system.cpu.iew.lsq.thread0: [sn:126] requesting data of size: 0
1352500: system.cpu.iew.lsq.thread0: [sn:132] requesting data of size: 0
1352500: system.cpu.iew.lsq.thread0: [sn:137] requesting data of size: 0
1352500: system.cpu.iew.lsq.thread0: [sn:155] requesting data of size: 0
1352500: system.cpu.iew.lsq.thread0: [sn:156] requesting data of size: 0
1352500: system.cpu.iew.lsq.thread0: [sn:157] requesting data of size: 0
1352500: system.cpu.iew.lsq.thread0: [sn:158] requesting data of size: 0
1352500: system.cpu.iew.lsq.thread0: [sn:161] requesting data of size: 0
1352500: system.cpu.iew.lsq.thread0: [sn:210] requesting data of size: 0
1352500: system.cpu.iew.lsq.thread0: [sn:225] requesting data of size: 0
1352500: system.cpu.iew.lsq.thread0: [sn:298] requesting data of size: 0
1352500: system.cpu.iew.lsq.thread0: [sn:313] requesting data of size: 0
1352500: system.cpu.iew.lsq.thread0: [sn:361] requesting data of size: 0
1352500: system.cpu.iew.lsq.thread0: [sn:369] requesting data of size: 0
1352500: system.cpu.iew.lsq.thread0: [sn:427] requesting data of size: 0
1352500: system.cpu.iew.lsq.thread0: [sn:432] requesting data of size: 0
1352500: system.cpu.iew.lsq.thread0: [sn:527] requesting data of size: 0
1352500: system.cpu.iew.lsq.thread0: [sn:584] requesting data of size: 0
1352500: system.cpu.iew.lsq.thread0: [sn:600] requesting data of size: 0
1352500: system.cpu.iew.lsq.thread0: [sn:710] requesting data of size: 0
1352500: system.cpu.iew.lsq.thread0: [sn:729] requesting data of size: 0
1352500: system.cpu.iew.lsq.thread0: [sn:871] requesting data of size: 0
1352500: system.cpu.iew.lsq.thread0: [sn:875] requesting data of size: 0
1352500: system.cpu.iew.lsq.thread0: [sn:890] requesting data of size: 0
1352500: system.cpu.iew.lsq.thread0: [sn:892] requesting data of size: 0
1352500: system.cpu.iew.lsq.thread0: [sn:976] requesting data of size: 0
1352500: system.cpu.iew.lsq.thread0: [sn:978] requesting data of size: 0
1352500: system.cpu.iew.lsq.thread0: [sn:980] requesting data of size: 0
1352500: system.cpu.iew.lsq.thread0: [sn:982] requesting data of size: 0
1352500: system.cpu.iew.lsq.thread0: [sn:984] requesting data of size: 0
1352500: system.cpu.iew.lsq.thread0: [sn:986] requesting data of size: 0
1352500: system.cpu.iew.lsq.thread0: [sn:989] requesting data of size: 0
1352500: system.cpu.iew.lsq.thread0: [sn:991] requesting data of size: 0
1352500: system.cpu.iew: IQ has 87 free entries (Can schedule: 0).  LQ has 92 free entries. SQ has 96 free entries.
1352500: system.cpu.rob: [tid:0] Checking if head is ready. ROB size=512. [sn:112]
1352500: system.cpu.rob: [tid:0] Reading Head Instr.
1352500: system.cpu.rob: [tid:0] Reading Head Instr.
1353000: system.cpu.iew: Issue: Processing [tid:0]
1353000: system.cpu.iew: [tid:0] Not blocked, so attempting to run dispatch.
1353000: system.cpu.iew: [tid:0] Getting list of reinsertion ready instructions from WIB
1353000: system.cpu.rob: [tid:0] Finding oldest ready instructions in WIB.
1353000: system.cpu.rob: [tid:0] Checking instruction in WIB. [sn:877]
1353000: system.cpu.rob: WIB: Instruction waiting on loadPtr 14. [sn:877]
1353000: system.cpu.rob: [tid:0] Checking instruction in WIB. [sn:878]
1353000: system.cpu.rob: WIB: Instruction waiting on loadPtr 14. [sn:878]
1353000: system.cpu.rob: [tid:0] Checking instruction in WIB. [sn:879]
1353000: system.cpu.rob: WIB: Instruction waiting on loadPtr 14. [sn:879]
1353000: system.cpu.rob: [tid:0] Checking instruction in WIB. [sn:880]
1353000: system.cpu.rob: WIB: Instruction waiting on loadPtr 14. [sn:880]
1353000: system.cpu.rob: [tid:0] Checking instruction in WIB. [sn:881]
1353000: system.cpu.rob: WIB: Instruction waiting on loadPtr 14. [sn:881]
1353000: system.cpu.rob: [tid:0] Checking instruction in WIB. [sn:882]
1353000: system.cpu.rob: WIB: Instruction waiting on loadPtr 14. [sn:882]
1353000: system.cpu.rob: [tid:0] Checking instruction in WIB. [sn:883]
1353000: system.cpu.rob: WIB: Instruction waiting on loadPtr 14. [sn:883]
1353000: system.cpu.rob: [tid:0] Checking instruction in WIB. [sn:884]
1353000: system.cpu.rob: WIB: Instruction waiting on loadPtr 14. [sn:884]
1353000: system.cpu.rob: [tid:0] Checking instruction in WIB. [sn:885]
1353000: system.cpu.rob: WIB: Instruction waiting on loadPtr 14. [sn:885]
1353000: system.cpu.rob: [tid:0] Checking instruction in WIB. [sn:886]
1353000: system.cpu.rob: WIB: Instruction waiting on loadPtr 14. [sn:886]
1353000: system.cpu.rob: [tid:0] Checking instruction in WIB. [sn:887]
1353000: system.cpu.rob: WIB: Instruction waiting on loadPtr 14. [sn:887]
1353000: system.cpu.rob: [tid:0] Checking instruction in WIB. [sn:891]
1353000: system.cpu.rob: WIB: Instruction waiting on loadPtr 15. [sn:891]
1353000: system.cpu.rob: [tid:0] Checking instruction in WIB. [sn:894]
1353000: system.cpu.rob: WIB: Instruction waiting on loadPtr 16. [sn:894]
1353000: system.cpu.rob: [tid:0] Checking instruction in WIB. [sn:899]
1353000: system.cpu.rob: WIB: Instruction waiting on loadPtr 13. [sn:899]
1353000: system.cpu.rob: [tid:0] Checking instruction in WIB. [sn:977]
1353000: system.cpu.rob: WIB: Instruction waiting on loadPtr 19. [sn:977]
1353000: system.cpu.rob: [tid:0] WIB Read Cycle - even:1
1353000: system.cpu.iew: [tid:0] There are 0 reinsertion ready instructions from WIB
1353000: system.cpu.iq: Attempting to schedule ready instructions from the IQ.
1353000: system.cpu.iq: Not able to schedule any instructions.
1353000: system.cpu.iew: Processing [tid:0]
1353000: system.cpu.iew: [tid:0], Dispatch dispatched 0 instructions.
1353000: system.cpu.iew.lsq.thread0: SQ size: 128, #stores occupied: 32
1353000: system.cpu.iew.lsq.thread0: LQ size: 128, #loads occupied: 36
1353000: system.cpu.iew.lsq.thread0: Load Queue:
1353000: system.cpu.iew.lsq.thread0: [sn:114] requesting data of size: 0
1353000: system.cpu.iew.lsq.thread0: [sn:116] requesting data of size: 0
1353000: system.cpu.iew.lsq.thread0: [sn:118] requesting data of size: 0
1353000: system.cpu.iew.lsq.thread0: [sn:126] requesting data of size: 0
1353000: system.cpu.iew.lsq.thread0: [sn:132] requesting data of size: 0
1353000: system.cpu.iew.lsq.thread0: [sn:137] requesting data of size: 0
1353000: system.cpu.iew.lsq.thread0: [sn:155] requesting data of size: 0
1353000: system.cpu.iew.lsq.thread0: [sn:156] requesting data of size: 0
1353000: system.cpu.iew.lsq.thread0: [sn:157] requesting data of size: 0
1353000: system.cpu.iew.lsq.thread0: [sn:158] requesting data of size: 0
1353000: system.cpu.iew.lsq.thread0: [sn:161] requesting data of size: 0
1353000: system.cpu.iew.lsq.thread0: [sn:210] requesting data of size: 0
1353000: system.cpu.iew.lsq.thread0: [sn:225] requesting data of size: 0
1353000: system.cpu.iew.lsq.thread0: [sn:298] requesting data of size: 0
1353000: system.cpu.iew.lsq.thread0: [sn:313] requesting data of size: 0
1353000: system.cpu.iew.lsq.thread0: [sn:361] requesting data of size: 0
1353000: system.cpu.iew.lsq.thread0: [sn:369] requesting data of size: 0
1353000: system.cpu.iew.lsq.thread0: [sn:427] requesting data of size: 0
1353000: system.cpu.iew.lsq.thread0: [sn:432] requesting data of size: 0
1353000: system.cpu.iew.lsq.thread0: [sn:527] requesting data of size: 0
1353000: system.cpu.iew.lsq.thread0: [sn:584] requesting data of size: 0
1353000: system.cpu.iew.lsq.thread0: [sn:600] requesting data of size: 0
1353000: system.cpu.iew.lsq.thread0: [sn:710] requesting data of size: 0
1353000: system.cpu.iew.lsq.thread0: [sn:729] requesting data of size: 0
1353000: system.cpu.iew.lsq.thread0: [sn:871] requesting data of size: 0
1353000: system.cpu.iew.lsq.thread0: [sn:875] requesting data of size: 0
1353000: system.cpu.iew.lsq.thread0: [sn:890] requesting data of size: 0
1353000: system.cpu.iew.lsq.thread0: [sn:892] requesting data of size: 0
1353000: system.cpu.iew.lsq.thread0: [sn:976] requesting data of size: 0
1353000: system.cpu.iew.lsq.thread0: [sn:978] requesting data of size: 0
1353000: system.cpu.iew.lsq.thread0: [sn:980] requesting data of size: 0
1353000: system.cpu.iew.lsq.thread0: [sn:982] requesting data of size: 0
1353000: system.cpu.iew.lsq.thread0: [sn:984] requesting data of size: 0
1353000: system.cpu.iew.lsq.thread0: [sn:986] requesting data of size: 0
1353000: system.cpu.iew.lsq.thread0: [sn:989] requesting data of size: 0
1353000: system.cpu.iew.lsq.thread0: [sn:991] requesting data of size: 0
1353000: system.cpu.iew: IQ has 87 free entries (Can schedule: 0).  LQ has 92 free entries. SQ has 96 free entries.
1353000: system.cpu.rob: [tid:0] Checking if head is ready. ROB size=512. [sn:112]
1353000: system.cpu.rob: [tid:0] Reading Head Instr.
1353000: system.cpu.rob: [tid:0] Reading Head Instr.
Exiting @ tick 1353000 because user interrupt received
