Global frequency set at 1000000000000 ticks per second
      0: system.cpu.rob: Created ROB
      0: system.cpu.rob: Reseting state.
      0: system.cpu.rob: Setting active threads list pointer.
gem5 Simulator System.  https://www.gem5.org
gem5 is copyrighted software; use the --copyright option for details.

gem5 version 22.0.0.2
gem5 compiled Nov 19 2025 11:05:33
gem5 started Nov 19 2025 11:06:58
gem5 executing on ececomp1.ecn.purdue.edu, pid 1185318
command line: ./build/ECE565-ARM/gem5.opt --debug-flags=ROB configs/spec/spec_se.py --cpu-type=ArmO3CPU --maxinsts=1000000 --l1d_size=64kB --l1i_size=16kB --caches --l2cache -b sjeng

**** REAL SIMULATION ****
      0: system.cpu.rob: Does not need to squash due to being empty [sn:0]
  90500: system.cpu.rob: Adding inst PC (0x401ef4=>0x401ef8).(0=>1) to the ROB.
  90500: system.cpu.rob: [tid:0] Now has 1 instructions.
  90500: system.cpu.rob: Adding inst PC (0x401ef8=>0x401efc).(0=>1) to the ROB.
  90500: system.cpu.rob: [tid:0] Now has 2 instructions.
  90500: system.cpu.rob: Adding inst PC (0x401efc=>0x401f00).(0=>1) to the ROB.
  90500: system.cpu.rob: [tid:0] Now has 3 instructions.
  90500: system.cpu.rob: [tid:0] Checking if head is ready. ROB size=3
. HEAD SN=1  90500: system.cpu.rob: [tid:0] Reading Head Instr.
  90500: system.cpu.rob: [tid:0] Reading Head Instr.
  91000: system.cpu.rob: [tid:0] Checking if head is ready. ROB size=3
. HEAD SN=1  91000: system.cpu.rob: [tid:0] Reading Head Instr.
  91000: system.cpu.rob: [tid:0] Reading Head Instr.
  91500: system.cpu.rob: [tid:0] Checking if head is ready. ROB size=3
. HEAD SN=1  91500: system.cpu.rob: [tid:0] Reading Head Instr.
  91500: system.cpu.rob: [tid:0] Reading Head Instr.
  92000: system.cpu.rob: [tid:0] Checking if head is ready. ROB size=3
. HEAD SN=1  92000: system.cpu.rob: [tid:0] Reading Head Instr.
  92000: system.cpu.rob: [tid:0] Reading Head Instr.
  92500: system.cpu.rob: [tid:0] Checking if head is ready. ROB size=3
. HEAD SN=1  92500: system.cpu.rob: [tid:0] Reading Head Instr.
  92500: system.cpu.rob: [tid:0] Retiring head instruction, instruction PC (0x401ef4=>0x401ef8).(0=>1), [sn:1]
  92500: system.cpu.rob: Updating global head ptr.
  92500: system.cpu.rob: [tid:0] Checking if head is ready. ROB size=2
. HEAD SN=2  92500: system.cpu.rob: [tid:0] Reading Head Instr.
  92500: system.cpu.rob: [tid:0] Retiring head instruction, instruction PC (0x401ef8=>0x401efc).(0=>1), [sn:2]
  92500: system.cpu.rob: Updating global head ptr.
  92500: system.cpu.rob: [tid:0] Checking if head is ready. ROB size=1
. HEAD SN=3  92500: system.cpu.rob: [tid:0] Reading Head Instr.
  92500: system.cpu.rob: [tid:0] Retiring head instruction, instruction PC (0x401efc=>0x401f00).(0=>1), [sn:3]
  92500: system.cpu.rob: Updating global head ptr.
 163000: system.cpu.rob: Adding inst PC (0x401f00=>0x401f04).(0=>1) to the ROB.
 163000: system.cpu.rob: [tid:0] Now has 1 instructions.
 163000: system.cpu.rob: Adding inst PC (0x401f04=>0x401f08).(0=>1) to the ROB.
 163000: system.cpu.rob: [tid:0] Now has 2 instructions.
 163000: system.cpu.rob: Adding inst PC (0x401f08=>0x401f0c).(0=>1) to the ROB.
 163000: system.cpu.rob: [tid:0] Now has 3 instructions.
 163000: system.cpu.rob: Adding inst PC (0x401f0c=>0x401f10).(0=>1) to the ROB.
 163000: system.cpu.rob: [tid:0] Now has 4 instructions.
 163000: system.cpu.rob: Adding inst PC (0x401f10=>0x401f14).(0=>1) to the ROB.
 163000: system.cpu.rob: [tid:0] Now has 5 instructions.
 163000: system.cpu.rob: Adding inst PC (0x401f14=>0x401f18).(0=>1) to the ROB.
 163000: system.cpu.rob: [tid:0] Now has 6 instructions.
 163000: system.cpu.rob: Adding inst PC (0x401f18=>0x401f1c).(0=>1) to the ROB.
 163000: system.cpu.rob: [tid:0] Now has 7 instructions.
 163000: system.cpu.rob: Adding inst PC (0x401f1c=>0x401f20).(0=>1) to the ROB.
 163000: system.cpu.rob: [tid:0] Now has 8 instructions.
 163000: system.cpu.rob: [tid:0] Checking if head is ready. ROB size=8
. HEAD SN=4 163000: system.cpu.rob: [tid:0] Reading Head Instr.
 163000: system.cpu.rob: [tid:0] Reading Head Instr.
 163500: system.cpu.rob: Adding inst PC (0x401f20=>0x401f24).(0=>1) to the ROB.
 163500: system.cpu.rob: [tid:0] Now has 9 instructions.
 163500: system.cpu.rob: Adding inst PC (0x401f24=>0x401f28).(0=>1) to the ROB.
 163500: system.cpu.rob: [tid:0] Now has 10 instructions.
 163500: system.cpu.rob: Adding inst PC (0x401f28=>0x401f2c).(0=>1) to the ROB.
 163500: system.cpu.rob: [tid:0] Now has 11 instructions.
 163500: system.cpu.rob: Adding inst PC (0x401f2c=>0x401f30).(0=>1) to the ROB.
 163500: system.cpu.rob: [tid:0] Now has 12 instructions.
 163500: system.cpu.rob: Adding inst PC (0x401f30=>0x401f34).(0=>1) to the ROB.
 163500: system.cpu.rob: [tid:0] Now has 13 instructions.
 163500: system.cpu.rob: Adding inst PC (0x401f34=>0x401f38).(0=>1) to the ROB.
 163500: system.cpu.rob: [tid:0] Now has 14 instructions.
 163500: system.cpu.rob: Adding inst PC (0x401f38=>0x401f3c).(0=>1) to the ROB.
 163500: system.cpu.rob: [tid:0] Now has 15 instructions.
 163500: system.cpu.rob: Adding inst PC (0x401f3c=>0x401f40).(0=>1) to the ROB.
 163500: system.cpu.rob: [tid:0] Now has 16 instructions.
 163500: system.cpu.rob: [tid:0] Checking if head is ready. ROB size=16
. HEAD SN=4 163500: system.cpu.rob: [tid:0] Reading Head Instr.
 163500: system.cpu.rob: [tid:0] Reading Head Instr.
 164000: system.cpu.rob: [tid:0] Assigned WIB Load Vector Pointer: 0
 164000: system.cpu.rob: [tid:0] Checking if head is ready. ROB size=16
. HEAD SN=4 164000: system.cpu.rob: [tid:0] Reading Head Instr.
 164000: system.cpu.rob: [tid:0] Reading Head Instr.
 164500: system.cpu.rob: [tid:0] Checking if head is ready. ROB size=16
. HEAD SN=4 164500: system.cpu.rob: [tid:0] Reading Head Instr.
 164500: system.cpu.rob: [tid:0] Reading Head Instr.
 165000: system.cpu.rob: [tid:0] Checking if head is ready. ROB size=16
. HEAD SN=4 165000: system.cpu.rob: [tid:0] Reading Head Instr.
 165000: system.cpu.rob: [tid:0] Reading Head Instr.
 165500: system.cpu.rob: [tid:0] Checking if head is ready. ROB size=16
. HEAD SN=4 165500: system.cpu.rob: [tid:0] Reading Head Instr.
 165500: system.cpu.rob: [tid:0] Reading Head Instr.
 166000: system.cpu.rob: [tid:0] Checking if head is ready. ROB size=16
. HEAD SN=4 166000: system.cpu.rob: [tid:0] Reading Head Instr.
 166000: system.cpu.rob: [tid:0] Reading Head Instr.
 166500: system.cpu.rob: [tid:0] Checking if head is ready. ROB size=16
. HEAD SN=4 166500: system.cpu.rob: [tid:0] Reading Head Instr.
 166500: system.cpu.rob: [tid:0] Reading Head Instr.
 167000: system.cpu.rob: [tid:0] Checking if head is ready. ROB size=16
. HEAD SN=4 167000: system.cpu.rob: [tid:0] Reading Head Instr.
 167000: system.cpu.rob: [tid:0] Reading Head Instr.
 167500: system.cpu.rob: [tid:0] Checking if head is ready. ROB size=16
. HEAD SN=4 167500: system.cpu.rob: [tid:0] Reading Head Instr.
 167500: system.cpu.rob: [tid:0] Reading Head Instr.
 168000: system.cpu.rob: [tid:0] Checking if head is ready. ROB size=16
. HEAD SN=4 168000: system.cpu.rob: [tid:0] Reading Head Instr.
 168000: system.cpu.rob: [tid:0] Reading Head Instr.
 168500: system.cpu.rob: [tid:0] Checking if head is ready. ROB size=16
. HEAD SN=4 168500: system.cpu.rob: [tid:0] Reading Head Instr.
 168500: system.cpu.rob: [tid:0] Reading Head Instr.
 169000: system.cpu.rob: [tid:0] Checking if head is ready. ROB size=16
. HEAD SN=4 169000: system.cpu.rob: [tid:0] Reading Head Instr.
 169000: system.cpu.rob: [tid:0] Reading Head Instr.
 169500: system.cpu.rob: [tid:0] Checking if head is ready. ROB size=16
. HEAD SN=4 169500: system.cpu.rob: [tid:0] Reading Head Instr.
 169500: system.cpu.rob: [tid:0] Reading Head Instr.
 170000: system.cpu.rob: [tid:0] Checking if head is ready. ROB size=16
. HEAD SN=4 170000: system.cpu.rob: [tid:0] Reading Head Instr.
 170000: system.cpu.rob: [tid:0] Reading Head Instr.
 170500: system.cpu.rob: [tid:0] Checking if head is ready. ROB size=16
. HEAD SN=4 170500: system.cpu.rob: [tid:0] Reading Head Instr.
 170500: system.cpu.rob: [tid:0] Reading Head Instr.
 171000: system.cpu.rob: [tid:0] Checking if head is ready. ROB size=16
. HEAD SN=4 171000: system.cpu.rob: [tid:0] Reading Head Instr.
 171000: system.cpu.rob: [tid:0] Reading Head Instr.
 249500: system.cpu.rob: [tid:0] Checking if head is ready. ROB size=16
. HEAD SN=4 249500: system.cpu.rob: [tid:0] Reading Head Instr.
 249500: system.cpu.rob: [tid:0] Reading Head Instr.
 250000: system.cpu.rob: [tid:0] Checking if head is ready. ROB size=16
. HEAD SN=4 250000: system.cpu.rob: [tid:0] Reading Head Instr.
 250000: system.cpu.rob: [tid:0] Reading Head Instr.
 250500: system.cpu.rob: [tid:0] Checking if head is ready. ROB size=16
. HEAD SN=4 250500: system.cpu.rob: [tid:0] Reading Head Instr.
 250500: system.cpu.rob: [tid:0] Reading Head Instr.
 251000: system.cpu.rob: Adding inst PC (0x418500=>0x418504).(0=>1) to the ROB.
 251000: system.cpu.rob: [tid:0] Now has 17 instructions.
 251000: system.cpu.rob: Adding inst PC (0x418500=>0x418504).(1=>2) to the ROB.
 251000: system.cpu.rob: [tid:0] Now has 18 instructions.
 251000: system.cpu.rob: Adding inst PC (0x418500=>0x418504).(2=>3) to the ROB.
 251000: system.cpu.rob: [tid:0] Now has 19 instructions.
 251000: system.cpu.rob: Adding inst PC (0x418500=>0x418504).(3=>4) to the ROB.
 251000: system.cpu.rob: [tid:0] Now has 20 instructions.
 251000: system.cpu.rob: Adding inst PC (0x418504=>0x418508).(0=>1) to the ROB.
 251000: system.cpu.rob: [tid:0] Now has 21 instructions.
 251000: system.cpu.rob: Adding inst PC (0x418508=>0x41850c).(0=>1) to the ROB.
 251000: system.cpu.rob: [tid:0] Now has 22 instructions.
 251000: system.cpu.rob: Adding inst PC (0x41850c=>0x418510).(0=>1) to the ROB.
 251000: system.cpu.rob: [tid:0] Now has 23 instructions.
 251000: system.cpu.rob: Adding inst PC (0x418510=>0x418514).(0=>1) to the ROB.
 251000: system.cpu.rob: [tid:0] Now has 24 instructions.
 251000: system.cpu.rob: [tid:0] Checking if head is ready. ROB size=24
. HEAD SN=4 251000: system.cpu.rob: [tid:0] Reading Head Instr.
 251000: system.cpu.rob: [tid:0] Reading Head Instr.
 251500: system.cpu.rob: Adding inst PC (0x418510=>0x418514).(1=>2) to the ROB.
 251500: system.cpu.rob: [tid:0] Now has 25 instructions.
 251500: system.cpu.rob: Adding inst PC (0x418510=>0x418514).(2=>3) to the ROB.
 251500: system.cpu.rob: [tid:0] Now has 26 instructions.
 251500: system.cpu.rob: Adding inst PC (0x418514=>0x418518).(0=>1) to the ROB.
 251500: system.cpu.rob: [tid:0] Now has 27 instructions.
 251500: system.cpu.rob: Adding inst PC (0x418518=>0x41851c).(0=>1) to the ROB.
 251500: system.cpu.rob: [tid:0] Now has 28 instructions.
 251500: system.cpu.rob: Adding inst PC (0x418518=>0x41851c).(1=>2) to the ROB.
 251500: system.cpu.rob: [tid:0] Now has 29 instructions.
 251500: system.cpu.rob: Adding inst PC (0x418518=>0x41851c).(2=>3) to the ROB.
 251500: system.cpu.rob: [tid:0] Now has 30 instructions.
 251500: system.cpu.rob: Adding inst PC (0x41851c=>0x418520).(0=>1) to the ROB.
 251500: system.cpu.rob: [tid:0] Now has 31 instructions.
 251500: system.cpu.rob: Adding inst PC (0x418520=>0x418524).(0=>1) to the ROB.
 251500: system.cpu.rob: [tid:0] Now has 32 instructions.
 251500: system.cpu.rob: [tid:0] Checking if head is ready. ROB size=32
. HEAD SN=4 251500: system.cpu.rob: [tid:0] Reading Head Instr.
 251500: system.cpu.rob: [tid:0] Reading Head Instr.
 252000: system.cpu.rob: Adding inst PC (0x418524=>0x418528).(0=>1) to the ROB.
 252000: system.cpu.rob: [tid:0] Now has 33 instructions.
 252000: system.cpu.rob: Adding inst PC (0x418524=>0x418528).(1=>2) to the ROB.
 252000: system.cpu.rob: [tid:0] Now has 34 instructions.
 252000: system.cpu.rob: Adding inst PC (0x418524=>0x418528).(2=>3) to the ROB.
 252000: system.cpu.rob: [tid:0] Now has 35 instructions.
 252000: system.cpu.rob: Adding inst PC (0x418528=>0x41852c).(0=>1) to the ROB.
 252000: system.cpu.rob: [tid:0] Now has 36 instructions.
 252000: system.cpu.rob: Adding inst PC (0x418528=>0x41852c).(1=>2) to the ROB.
 252000: system.cpu.rob: [tid:0] Now has 37 instructions.
 252000: system.cpu.rob: Adding inst PC (0x418528=>0x41852c).(2=>3) to the ROB.
 252000: system.cpu.rob: [tid:0] Now has 38 instructions.
 252000: system.cpu.rob: Adding inst PC (0x41852c=>0x418530).(0=>1) to the ROB.
 252000: system.cpu.rob: [tid:0] Now has 39 instructions.
 252000: system.cpu.rob: Adding inst PC (0x418530=>0x418534).(0=>1) to the ROB.
 252000: system.cpu.rob: [tid:0] Now has 40 instructions.
 252000: system.cpu.rob: [tid:0] Checking if head is ready. ROB size=40
. HEAD SN=4 252000: system.cpu.rob: [tid:0] Reading Head Instr.
 252000: system.cpu.rob: [tid:0] Reading Head Instr.
 252500: system.cpu.rob: [tid:0] Assigned WIB Load Vector Pointer: 1
 252500: system.cpu.rob: Adding inst PC (0x418534=>0x418538).(0=>1) to the ROB.
 252500: system.cpu.rob: [tid:0] Now has 41 instructions.
 252500: system.cpu.rob: Adding inst PC (0x418538=>0x41853c).(0=>1) to the ROB.
 252500: system.cpu.rob: [tid:0] Now has 42 instructions.
 252500: system.cpu.rob: Adding inst PC (0x418538=>0x41853c).(1=>2) to the ROB.
 252500: system.cpu.rob: [tid:0] Now has 43 instructions.
 252500: system.cpu.rob: Adding inst PC (0x418538=>0x41853c).(2=>3) to the ROB.
 252500: system.cpu.rob: [tid:0] Now has 44 instructions.
 252500: system.cpu.rob: Adding inst PC (0x41853c=>0x418540).(0=>1) to the ROB.
 252500: system.cpu.rob: [tid:0] Now has 45 instructions.
 252500: system.cpu.rob: [tid:0] Checking if head is ready. ROB size=45
. HEAD SN=4 252500: system.cpu.rob: [tid:0] Reading Head Instr.
 252500: system.cpu.rob: [tid:0] Reading Head Instr.
 253000: system.cpu.rob: [tid:0] Checking if head is ready. ROB size=45
. HEAD SN=4 253000: system.cpu.rob: [tid:0] Reading Head Instr.
 253000: system.cpu.rob: [tid:0] Reading Head Instr.
 253500: system.cpu.rob: [tid:0] Checking if head is ready. ROB size=45
. HEAD SN=4 253500: system.cpu.rob: [tid:0] Reading Head Instr.
 253500: system.cpu.rob: [tid:0] Reading Head Instr.
 254000: system.cpu.rob: [tid:0] Checking if head is ready. ROB size=45
. HEAD SN=4 254000: system.cpu.rob: [tid:0] Reading Head Instr.
 254000: system.cpu.rob: [tid:0] Reading Head Instr.
 254500: system.cpu.rob: [tid:0] Checking if head is ready. ROB size=45
. HEAD SN=4 254500: system.cpu.rob: [tid:0] Reading Head Instr.
 254500: system.cpu.rob: [tid:0] Reading Head Instr.
 255000: system.cpu.rob: [tid:0] Checking if head is ready. ROB size=45
. HEAD SN=4 255000: system.cpu.rob: [tid:0] Reading Head Instr.
 255000: system.cpu.rob: [tid:0] Reading Head Instr.
 255500: system.cpu.rob: [tid:0] Checking if head is ready. ROB size=45
. HEAD SN=4 255500: system.cpu.rob: [tid:0] Reading Head Instr.
 255500: system.cpu.rob: [tid:0] Reading Head Instr.
 256000: system.cpu.rob: [tid:0] Checking if head is ready. ROB size=45
. HEAD SN=4 256000: system.cpu.rob: [tid:0] Reading Head Instr.
 256000: system.cpu.rob: [tid:0] Reading Head Instr.
 256500: system.cpu.rob: [tid:0] Checking if head is ready. ROB size=45
. HEAD SN=4 256500: system.cpu.rob: [tid:0] Reading Head Instr.
 256500: system.cpu.rob: [tid:0] Reading Head Instr.
 257000: system.cpu.rob: [tid:0] Checking if head is ready. ROB size=45
. HEAD SN=4 257000: system.cpu.rob: [tid:0] Reading Head Instr.
 257000: system.cpu.rob: [tid:0] Reading Head Instr.
 257500: system.cpu.rob: [tid:0] Checking if head is ready. ROB size=45
. HEAD SN=4 257500: system.cpu.rob: [tid:0] Reading Head Instr.
 257500: system.cpu.rob: [tid:0] Reading Head Instr.
 258000: system.cpu.rob: [tid:0] Checking if head is ready. ROB size=45
. HEAD SN=4 258000: system.cpu.rob: [tid:0] Reading Head Instr.
 258000: system.cpu.rob: [tid:0] Reading Head Instr.
 258500: system.cpu.rob: [tid:0] Checking if head is ready. ROB size=45
. HEAD SN=4 258500: system.cpu.rob: [tid:0] Reading Head Instr.
 258500: system.cpu.rob: [tid:0] Reading Head Instr.
 259000: system.cpu.rob: [tid:0] Checking if head is ready. ROB size=45
. HEAD SN=4 259000: system.cpu.rob: [tid:0] Reading Head Instr.
 259000: system.cpu.rob: [tid:0] Reading Head Instr.
 259500: system.cpu.rob: [tid:0] Checking if head is ready. ROB size=45
. HEAD SN=4 259500: system.cpu.rob: [tid:0] Reading Head Instr.
 259500: system.cpu.rob: [tid:0] Reading Head Instr.
 269500: system.cpu.rob: [tid:0] Freed WIB Load Vector Pointer: 0
 269500: system.cpu.rob: [tid:0] Checking if head is ready. ROB size=45
. HEAD SN=4 269500: system.cpu.rob: [tid:0] Reading Head Instr.
 269500: system.cpu.rob: [tid:0] Reading Head Instr.
 270000: system.cpu.rob: [tid:0] Checking if head is ready. ROB size=45
. HEAD SN=4 270000: system.cpu.rob: [tid:0] Reading Head Instr.
 270000: system.cpu.rob: [tid:0] Reading Head Instr.
 270500: system.cpu.rob: [tid:0] Checking if head is ready. ROB size=45
. HEAD SN=4 270500: system.cpu.rob: [tid:0] Reading Head Instr.
 270500: system.cpu.rob: [tid:0] Retiring head instruction, instruction PC (0x401f00=>0x401f04).(0=>1), [sn:4]
 270500: system.cpu.rob: Updating global head ptr.
 270500: system.cpu.rob: [tid:0] Checking if head is ready. ROB size=44
. HEAD SN=5 270500: system.cpu.rob: [tid:0] Reading Head Instr.
 270500: system.cpu.rob: [tid:0] Retiring head instruction, instruction PC (0x401f04=>0x401f08).(0=>1), [sn:5]
 270500: system.cpu.rob: Updating global head ptr.
 270500: system.cpu.rob: [tid:0] Checking if head is ready. ROB size=43
. HEAD SN=6 270500: system.cpu.rob: [tid:0] Reading Head Instr.
 270500: system.cpu.rob: [tid:0] Retiring head instruction, instruction PC (0x401f08=>0x401f0c).(0=>1), [sn:6]
 270500: system.cpu.rob: Updating global head ptr.
 270500: system.cpu.rob: [tid:0] Checking if head is ready. ROB size=42
. HEAD SN=7 270500: system.cpu.rob: [tid:0] Reading Head Instr.
 270500: system.cpu.rob: [tid:0] Retiring head instruction, instruction PC (0x401f0c=>0x401f10).(0=>1), [sn:7]
 270500: system.cpu.rob: Updating global head ptr.
 270500: system.cpu.rob: [tid:0] Checking if head is ready. ROB size=41
. HEAD SN=8 270500: system.cpu.rob: [tid:0] Reading Head Instr.
 270500: system.cpu.rob: [tid:0] Retiring head instruction, instruction PC (0x401f10=>0x401f14).(0=>1), [sn:8]
 270500: system.cpu.rob: Updating global head ptr.
 270500: system.cpu.rob: [tid:0] Checking if head is ready. ROB size=40
. HEAD SN=9 270500: system.cpu.rob: [tid:0] Reading Head Instr.
 270500: system.cpu.rob: [tid:0] Retiring head instruction, instruction PC (0x401f14=>0x401f18).(0=>1), [sn:9]
 270500: system.cpu.rob: Updating global head ptr.
 270500: system.cpu.rob: [tid:0] Checking if head is ready. ROB size=39
. HEAD SN=10 270500: system.cpu.rob: [tid:0] Reading Head Instr.
 270500: system.cpu.rob: [tid:0] Retiring head instruction, instruction PC (0x401f18=>0x401f1c).(0=>1), [sn:10]
 270500: system.cpu.rob: Updating global head ptr.
 270500: system.cpu.rob: [tid:0] Checking if head is ready. ROB size=38
. HEAD SN=11 270500: system.cpu.rob: [tid:0] Reading Head Instr.
 270500: system.cpu.rob: [tid:0] Retiring head instruction, instruction PC (0x401f1c=>0x401f20).(0=>1), [sn:11]
 270500: system.cpu.rob: Updating global head ptr.
 270500: system.cpu.rob: [tid:0] Reading Head Instr.
 270500: system.cpu.rob: [tid:0] Reading Head Instr.
 271000: system.cpu.rob: [tid:0] Checking if head is ready. ROB size=37
. HEAD SN=12 271000: system.cpu.rob: [tid:0] Reading Head Instr.
 271000: system.cpu.rob: [tid:0] Retiring head instruction, instruction PC (0x401f20=>0x401f24).(0=>1), [sn:12]
 271000: system.cpu.rob: Updating global head ptr.
 271000: system.cpu.rob: [tid:0] Checking if head is ready. ROB size=36
. HEAD SN=13 271000: system.cpu.rob: [tid:0] Reading Head Instr.
 271000: system.cpu.rob: [tid:0] Retiring head instruction, instruction PC (0x401f24=>0x401f28).(0=>1), [sn:13]
 271000: system.cpu.rob: Updating global head ptr.
 271000: system.cpu.rob: [tid:0] Checking if head is ready. ROB size=35
. HEAD SN=14 271000: system.cpu.rob: [tid:0] Reading Head Instr.
 271000: system.cpu.rob: [tid:0] Retiring head instruction, instruction PC (0x401f28=>0x401f2c).(0=>1), [sn:14]
 271000: system.cpu.rob: Updating global head ptr.
 271000: system.cpu.rob: [tid:0] Checking if head is ready. ROB size=34
. HEAD SN=15 271000: system.cpu.rob: [tid:0] Reading Head Instr.
 271000: system.cpu.rob: [tid:0] Retiring head instruction, instruction PC (0x401f2c=>0x401f30).(0=>1), [sn:15]
 271000: system.cpu.rob: Updating global head ptr.
 271000: system.cpu.rob: [tid:0] Checking if head is ready. ROB size=33
. HEAD SN=16 271000: system.cpu.rob: [tid:0] Reading Head Instr.
 271000: system.cpu.rob: [tid:0] Retiring head instruction, instruction PC (0x401f30=>0x401f34).(0=>1), [sn:16]
 271000: system.cpu.rob: Updating global head ptr.
 271000: system.cpu.rob: [tid:0] Checking if head is ready. ROB size=32
. HEAD SN=17 271000: system.cpu.rob: [tid:0] Reading Head Instr.
 271000: system.cpu.rob: [tid:0] Retiring head instruction, instruction PC (0x401f34=>0x401f38).(0=>1), [sn:17]
 271000: system.cpu.rob: Updating global head ptr.
 271000: system.cpu.rob: [tid:0] Checking if head is ready. ROB size=31
. HEAD SN=18 271000: system.cpu.rob: [tid:0] Reading Head Instr.
 271000: system.cpu.rob: [tid:0] Retiring head instruction, instruction PC (0x401f38=>0x401f3c).(0=>1), [sn:18]
 271000: system.cpu.rob: Updating global head ptr.
 271000: system.cpu.rob: [tid:0] Checking if head is ready. ROB size=30
. HEAD SN=19 271000: system.cpu.rob: [tid:0] Reading Head Instr.
 271000: system.cpu.rob: [tid:0] Retiring head instruction, instruction PC (0x401f3c=>0x418500).(0=>1), [sn:19]
 271000: system.cpu.rob: Updating global head ptr.
 271000: system.cpu.rob: [tid:0] Reading Head Instr.
 271000: system.cpu.rob: [tid:0] Reading Head Instr.
 271500: system.cpu.rob: [tid:0] Checking if head is ready. ROB size=29
. HEAD SN=20 271500: system.cpu.rob: [tid:0] Reading Head Instr.
 271500: system.cpu.rob: [tid:0] Retiring head instruction, instruction PC (0x418500=>0x418504).(0=>1), [sn:20]
 271500: system.cpu.rob: Updating global head ptr.
 271500: system.cpu.rob: [tid:0] Checking if head is ready. ROB size=28
. HEAD SN=21 271500: system.cpu.rob: [tid:0] Reading Head Instr.
 271500: system.cpu.rob: [tid:0] Retiring head instruction, instruction PC (0x418500=>0x418504).(1=>2), [sn:21]
 271500: system.cpu.rob: Updating global head ptr.
 271500: system.cpu.rob: [tid:0] Checking if head is ready. ROB size=27
. HEAD SN=22 271500: system.cpu.rob: [tid:0] Reading Head Instr.
 271500: system.cpu.rob: [tid:0] Retiring head instruction, instruction PC (0x418500=>0x418504).(2=>3), [sn:22]
 271500: system.cpu.rob: Updating global head ptr.
 271500: system.cpu.rob: [tid:0] Checking if head is ready. ROB size=26
. HEAD SN=23 271500: system.cpu.rob: [tid:0] Reading Head Instr.
 271500: system.cpu.rob: [tid:0] Retiring head instruction, instruction PC (0x418500=>0x418504).(3=>4), [sn:23]
 271500: system.cpu.rob: Updating global head ptr.
 271500: system.cpu.rob: [tid:0] Checking if head is ready. ROB size=25
. HEAD SN=24 271500: system.cpu.rob: [tid:0] Reading Head Instr.
 271500: system.cpu.rob: [tid:0] Retiring head instruction, instruction PC (0x418504=>0x418508).(0=>1), [sn:24]
 271500: system.cpu.rob: Updating global head ptr.
 271500: system.cpu.rob: [tid:0] Checking if head is ready. ROB size=24
. HEAD SN=25 271500: system.cpu.rob: [tid:0] Reading Head Instr.
 271500: system.cpu.rob: [tid:0] Retiring head instruction, instruction PC (0x418508=>0x41850c).(0=>1), [sn:25]
 271500: system.cpu.rob: Updating global head ptr.
 271500: system.cpu.rob: [tid:0] Checking if head is ready. ROB size=23
. HEAD SN=26 271500: system.cpu.rob: [tid:0] Reading Head Instr.
 271500: system.cpu.rob: [tid:0] Reading Head Instr.
 272000: system.cpu.rob: [tid:0] Checking if head is ready. ROB size=23
. HEAD SN=26 272000: system.cpu.rob: [tid:0] Reading Head Instr.
 272000: system.cpu.rob: [tid:0] Reading Head Instr.
 272500: system.cpu.rob: [tid:0] Checking if head is ready. ROB size=23
. HEAD SN=26 272500: system.cpu.rob: [tid:0] Reading Head Instr.
 272500: system.cpu.rob: [tid:0] Reading Head Instr.
 273000: system.cpu.rob: [tid:0] Checking if head is ready. ROB size=23
. HEAD SN=26 273000: system.cpu.rob: [tid:0] Reading Head Instr.
 273000: system.cpu.rob: [tid:0] Reading Head Instr.
 273500: system.cpu.rob: [tid:0] Checking if head is ready. ROB size=23
. HEAD SN=26 273500: system.cpu.rob: [tid:0] Reading Head Instr.
 273500: system.cpu.rob: [tid:0] Reading Head Instr.
 274000: system.cpu.rob: [tid:0] Checking if head is ready. ROB size=23
. HEAD SN=26 274000: system.cpu.rob: [tid:0] Reading Head Instr.
 274000: system.cpu.rob: [tid:0] Reading Head Instr.
 274500: system.cpu.rob: [tid:0] Checking if head is ready. ROB size=23
. HEAD SN=26 274500: system.cpu.rob: [tid:0] Reading Head Instr.
 274500: system.cpu.rob: [tid:0] Reading Head Instr.
 275000: system.cpu.rob: [tid:0] Checking if head is ready. ROB size=23
. HEAD SN=26 275000: system.cpu.rob: [tid:0] Reading Head Instr.
 275000: system.cpu.rob: [tid:0] Reading Head Instr.
 275500: system.cpu.rob: [tid:0] Checking if head is ready. ROB size=23
. HEAD SN=26 275500: system.cpu.rob: [tid:0] Reading Head Instr.
 275500: system.cpu.rob: [tid:0] Reading Head Instr.
 276000: system.cpu.rob: [tid:0] Checking if head is ready. ROB size=23
. HEAD SN=26 276000: system.cpu.rob: [tid:0] Reading Head Instr.
 276000: system.cpu.rob: [tid:0] Reading Head Instr.
 276500: system.cpu.rob: [tid:0] Checking if head is ready. ROB size=23
. HEAD SN=26 276500: system.cpu.rob: [tid:0] Reading Head Instr.
 276500: system.cpu.rob: [tid:0] Reading Head Instr.
 277000: system.cpu.rob: [tid:0] Checking if head is ready. ROB size=23
. HEAD SN=26 277000: system.cpu.rob: [tid:0] Reading Head Instr.
 277000: system.cpu.rob: [tid:0] Reading Head Instr.
 277500: system.cpu.rob: [tid:0] Checking if head is ready. ROB size=23
. HEAD SN=26 277500: system.cpu.rob: [tid:0] Reading Head Instr.
 277500: system.cpu.rob: [tid:0] Reading Head Instr.
 323500: system.cpu.rob: [tid:0] Checking if head is ready. ROB size=23
. HEAD SN=26 323500: system.cpu.rob: [tid:0] Reading Head Instr.
 323500: system.cpu.rob: [tid:0] Reading Head Instr.
 324000: system.cpu.rob: [tid:0] Checking if head is ready. ROB size=23
. HEAD SN=26 324000: system.cpu.rob: [tid:0] Reading Head Instr.
 324000: system.cpu.rob: [tid:0] Reading Head Instr.
 324500: system.cpu.rob: [tid:0] Checking if head is ready. ROB size=23
. HEAD SN=26 324500: system.cpu.rob: [tid:0] Reading Head Instr.
 324500: system.cpu.rob: [tid:0] Reading Head Instr.
 325000: system.cpu.rob: Adding inst PC (0x418540=>0x418544).(0=>1) to the ROB.
 325000: system.cpu.rob: [tid:0] Now has 24 instructions.
 325000: system.cpu.rob: Adding inst PC (0x418544=>0x418548).(0=>1) to the ROB.
 325000: system.cpu.rob: [tid:0] Now has 25 instructions.
 325000: system.cpu.rob: Adding inst PC (0x418548=>0x41854c).(0=>1) to the ROB.
 325000: system.cpu.rob: [tid:0] Now has 26 instructions.
 325000: system.cpu.rob: Adding inst PC (0x41854c=>0x418550).(0=>1) to the ROB.
 325000: system.cpu.rob: [tid:0] Now has 27 instructions.
 325000: system.cpu.rob: Adding inst PC (0x418550=>0x418554).(0=>1) to the ROB.
 325000: system.cpu.rob: [tid:0] Now has 28 instructions.
 325000: system.cpu.rob: Adding inst PC (0x418554=>0x418558).(0=>1) to the ROB.
 325000: system.cpu.rob: [tid:0] Now has 29 instructions.
 325000: system.cpu.rob: Adding inst PC (0x418558=>0x41855c).(0=>1) to the ROB.
 325000: system.cpu.rob: [tid:0] Now has 30 instructions.
 325000: system.cpu.rob: Adding inst PC (0x41855c=>0x418560).(0=>1) to the ROB.
 325000: system.cpu.rob: [tid:0] Now has 31 instructions.
 325000: system.cpu.rob: [tid:0] Checking if head is ready. ROB size=31
. HEAD SN=26 325000: system.cpu.rob: [tid:0] Reading Head Instr.
 325000: system.cpu.rob: [tid:0] Reading Head Instr.
 325500: system.cpu.rob: Adding inst PC (0x418560=>0x418564).(0=>1) to the ROB.
 325500: system.cpu.rob: [tid:0] Now has 32 instructions.
 325500: system.cpu.rob: Adding inst PC (0x418564=>0x418568).(0=>1) to the ROB.
 325500: system.cpu.rob: [tid:0] Now has 33 instructions.
 325500: system.cpu.rob: Adding inst PC (0x418568=>0x41856c).(0=>1) to the ROB.
 325500: system.cpu.rob: [tid:0] Now has 34 instructions.
 325500: system.cpu.rob: Adding inst PC (0x41856c=>0x418570).(0=>1) to the ROB.
 325500: system.cpu.rob: [tid:0] Now has 35 instructions.
 325500: system.cpu.rob: Adding inst PC (0x418570=>0x418574).(0=>1) to the ROB.
 325500: system.cpu.rob: [tid:0] Now has 36 instructions.
 325500: system.cpu.rob: Adding inst PC (0x418574=>0x418578).(0=>1) to the ROB.
 325500: system.cpu.rob: [tid:0] Now has 37 instructions.
 325500: system.cpu.rob: Adding inst PC (0x418578=>0x41857c).(0=>1) to the ROB.
 325500: system.cpu.rob: [tid:0] Now has 38 instructions.
 325500: system.cpu.rob: Adding inst PC (0x418578=>0x41857c).(1=>2) to the ROB.
 325500: system.cpu.rob: [tid:0] Now has 39 instructions.
 325500: system.cpu.rob: [tid:0] Checking if head is ready. ROB size=39
. HEAD SN=26 325500: system.cpu.rob: [tid:0] Reading Head Instr.
 325500: system.cpu.rob: [tid:0] Reading Head Instr.
 326000: system.cpu.rob: Adding inst PC (0x41857c=>0x418580).(0=>1) to the ROB.
 326000: system.cpu.rob: [tid:0] Now has 40 instructions.
 326000: system.cpu.rob: [tid:0] Checking if head is ready. ROB size=40
. HEAD SN=26 326000: system.cpu.rob: [tid:0] Reading Head Instr.
 326000: system.cpu.rob: [tid:0] Reading Head Instr.
 326500: system.cpu.rob: [tid:0] Checking if head is ready. ROB size=40
. HEAD SN=26 326500: system.cpu.rob: [tid:0] Reading Head Instr.
 326500: system.cpu.rob: [tid:0] Reading Head Instr.
 327000: system.cpu.rob: [tid:0] Checking if head is ready. ROB size=40
. HEAD SN=26 327000: system.cpu.rob: [tid:0] Reading Head Instr.
 327000: system.cpu.rob: [tid:0] Reading Head Instr.
 327500: system.cpu.rob: [tid:0] Checking if head is ready. ROB size=40
. HEAD SN=26 327500: system.cpu.rob: [tid:0] Reading Head Instr.
 327500: system.cpu.rob: [tid:0] Reading Head Instr.
 328000: system.cpu.rob: [tid:0] Assigned WIB Load Vector Pointer: 0
 328000: system.cpu.rob: WIB: [tid:0] loadPtr 0 set for instruction. [sn:65]
 328000: system.cpu.rob: [tid:0] Checking if head is ready. ROB size=40
. HEAD SN=26 328000: system.cpu.rob: [tid:0] Reading Head Instr.
 328000: system.cpu.rob: [tid:0] Reading Head Instr.
 328500: system.cpu.rob: WIB: Instruction waiting on loadPtr 0. [sn:65]
 328500: system.cpu.rob: [tid:0] WIB Reading instruction in bank 13. Waiting Status:1 [sn:65]
 328500: system.cpu.rob: WIB: Instruction waiting on loadPtr 0. [sn:65]
 328500: system.cpu.rob: [tid:0] Checking if head is ready. ROB size=40
. HEAD SN=26 328500: system.cpu.rob: [tid:0] Reading Head Instr.
 328500: system.cpu.rob: [tid:0] Reading Head Instr.
 329000: system.cpu.rob: WIB: Instruction waiting on loadPtr 0. [sn:65]
 329000: system.cpu.rob: [tid:0] WIB Reading instruction in bank 13. Waiting Status:1 [sn:65]
 329000: system.cpu.rob: [tid:0] Checking if head is ready. ROB size=40
. HEAD SN=26 329000: system.cpu.rob: [tid:0] Reading Head Instr.
 329000: system.cpu.rob: [tid:0] Reading Head Instr.
 329500: system.cpu.rob: WIB: Instruction waiting on loadPtr 0. [sn:65]
 329500: system.cpu.rob: [tid:0] WIB Reading instruction in bank 13. Waiting Status:1 [sn:65]
 329500: system.cpu.rob: WIB: Instruction waiting on loadPtr 0. [sn:65]
 329500: system.cpu.rob: [tid:0] Checking if head is ready. ROB size=40
. HEAD SN=26 329500: system.cpu.rob: [tid:0] Reading Head Instr.
 329500: system.cpu.rob: [tid:0] Reading Head Instr.
 330000: system.cpu.rob: WIB: Instruction waiting on loadPtr 0. [sn:65]
 330000: system.cpu.rob: [tid:0] WIB Reading instruction in bank 13. Waiting Status:1 [sn:65]
 330000: system.cpu.rob: [tid:0] Checking if head is ready. ROB size=40
. HEAD SN=26 330000: system.cpu.rob: [tid:0] Reading Head Instr.
 330000: system.cpu.rob: [tid:0] Reading Head Instr.
 330500: system.cpu.rob: WIB: Instruction waiting on loadPtr 0. [sn:65]
 330500: system.cpu.rob: [tid:0] WIB Reading instruction in bank 13. Waiting Status:1 [sn:65]
 330500: system.cpu.rob: WIB: Instruction waiting on loadPtr 0. [sn:65]
 330500: system.cpu.rob: [tid:0] Checking if head is ready. ROB size=40
. HEAD SN=26 330500: system.cpu.rob: [tid:0] Reading Head Instr.
 330500: system.cpu.rob: [tid:0] Reading Head Instr.
 331000: system.cpu.rob: WIB: Instruction waiting on loadPtr 0. [sn:65]
 331000: system.cpu.rob: [tid:0] WIB Reading instruction in bank 13. Waiting Status:1 [sn:65]
 331000: system.cpu.rob: [tid:0] Checking if head is ready. ROB size=40
. HEAD SN=26 331000: system.cpu.rob: [tid:0] Reading Head Instr.
 331000: system.cpu.rob: [tid:0] Reading Head Instr.
 331500: system.cpu.rob: WIB: Instruction waiting on loadPtr 0. [sn:65]
 331500: system.cpu.rob: [tid:0] WIB Reading instruction in bank 13. Waiting Status:1 [sn:65]
 331500: system.cpu.rob: WIB: Instruction waiting on loadPtr 0. [sn:65]
 331500: system.cpu.rob: [tid:0] Checking if head is ready. ROB size=40
. HEAD SN=26 331500: system.cpu.rob: [tid:0] Reading Head Instr.
 331500: system.cpu.rob: [tid:0] Reading Head Instr.
 332000: system.cpu.rob: WIB: Instruction waiting on loadPtr 0. [sn:65]
 332000: system.cpu.rob: [tid:0] WIB Reading instruction in bank 13. Waiting Status:1 [sn:65]
 332000: system.cpu.rob: [tid:0] Checking if head is ready. ROB size=40
. HEAD SN=26 332000: system.cpu.rob: [tid:0] Reading Head Instr.
 332000: system.cpu.rob: [tid:0] Reading Head Instr.
 332500: system.cpu.rob: WIB: Instruction waiting on loadPtr 0. [sn:65]
 332500: system.cpu.rob: [tid:0] WIB Reading instruction in bank 13. Waiting Status:1 [sn:65]
 332500: system.cpu.rob: WIB: Instruction waiting on loadPtr 0. [sn:65]
 332500: system.cpu.rob: [tid:0] Checking if head is ready. ROB size=40
. HEAD SN=26 332500: system.cpu.rob: [tid:0] Reading Head Instr.
 332500: system.cpu.rob: [tid:0] Reading Head Instr.
 333000: system.cpu.rob: WIB: Instruction waiting on loadPtr 0. [sn:65]
 333000: system.cpu.rob: [tid:0] WIB Reading instruction in bank 13. Waiting Status:1 [sn:65]
 333000: system.cpu.rob: [tid:0] Checking if head is ready. ROB size=40
. HEAD SN=26 333000: system.cpu.rob: [tid:0] Reading Head Instr.
 333000: system.cpu.rob: [tid:0] Reading Head Instr.
 338500: system.cpu.rob: WIB: Instruction waiting on loadPtr 0. [sn:65]
 338500: system.cpu.rob: [tid:0] WIB Reading instruction in bank 13. Waiting Status:1 [sn:65]
 338500: system.cpu.rob: WIB: Instruction waiting on loadPtr 0. [sn:65]
 338500: system.cpu.rob: [tid:0] Freed WIB Load Vector Pointer: 1
 338500: system.cpu.rob: [tid:0] Cleared load vector pointer 1 for instruction in WIB. [sn:65]
 338500: system.cpu.rob: [tid:0] Checking if head is ready. ROB size=40
. HEAD SN=26 338500: system.cpu.rob: [tid:0] Reading Head Instr.
 338500: system.cpu.rob: [tid:0] Reading Head Instr.
 339000: system.cpu.rob: WIB: Instruction waiting on loadPtr 0. [sn:65]
 339000: system.cpu.rob: [tid:0] WIB Reading instruction in bank 13. Waiting Status:1 [sn:65]
 339000: system.cpu.rob: [tid:0] Checking if head is ready. ROB size=40
. HEAD SN=26 339000: system.cpu.rob: [tid:0] Reading Head Instr.
 339000: system.cpu.rob: [tid:0] Reading Head Instr.
 339500: system.cpu.rob: WIB: Instruction waiting on loadPtr 0. [sn:65]
 339500: system.cpu.rob: [tid:0] WIB Reading instruction in bank 13. Waiting Status:1 [sn:65]
 339500: system.cpu.rob: WIB: Instruction waiting on loadPtr 0. [sn:65]
 339500: system.cpu.rob: Starting to squash within the ROB.
 339500: system.cpu.rob: [tid:0] Squashing instructions until [sn:48].
 339500: system.cpu.rob: [tid:0] Squashing instruction PC (0x41857c=>0x418580).(0=>1), seq num 65.
 339500: system.cpu.rob: [tid:0] Squashing instruction PC (0x418578=>0x41857c).(1=>2), seq num 64.
 339500: system.cpu.rob: [tid:0] Squashing instruction PC (0x418578=>0x41857c).(0=>1), seq num 63.
 339500: system.cpu.rob: [tid:0] Squashing instruction PC (0x418574=>0x418578).(0=>1), seq num 62.
 339500: system.cpu.rob: [tid:0] Squashing instruction PC (0x418570=>0x418574).(0=>1), seq num 61.
 339500: system.cpu.rob: [tid:0] Squashing instruction PC (0x41856c=>0x418570).(0=>1), seq num 60.
 339500: system.cpu.rob: [tid:0] Squashing instruction PC (0x418568=>0x41856c).(0=>1), seq num 59.
 339500: system.cpu.rob: [tid:0] Squashing instruction PC (0x418564=>0x418568).(0=>1), seq num 58.
 339500: system.cpu.rob: Updating global tail ptr.
 339500: system.cpu.rob: [tid:0] Checking for squash instruction with seq. number: 48
 339500: system.cpu.rob: [tid:0] Reading Head Instr.
 339500: system.cpu.rob: [tid:0] Reading Head Instr.
 340000: system.cpu.rob: [tid:0] Reading Tail Instr.
 340000: system.cpu.rob: [tid:0] Squashing instructions until [sn:48].
 340000: system.cpu.rob: [tid:0] Squashing instruction PC (0x418560=>0x418564).(0=>1), seq num 57.
 340000: system.cpu.rob: [tid:0] Squashing instruction PC (0x41855c=>0x418560).(0=>1), seq num 56.
 340000: system.cpu.rob: [tid:0] Squashing instruction PC (0x418558=>0x41855c).(0=>1), seq num 55.
 340000: system.cpu.rob: [tid:0] Squashing instruction PC (0x418554=>0x418558).(0=>1), seq num 54.
 340000: system.cpu.rob: [tid:0] Squashing instruction PC (0x418550=>0x418554).(0=>1), seq num 53.
 340000: system.cpu.rob: [tid:0] Squashing instruction PC (0x41854c=>0x418550).(0=>1), seq num 52.
 340000: system.cpu.rob: [tid:0] Squashing instruction PC (0x418548=>0x41854c).(0=>1), seq num 51.
 340000: system.cpu.rob: [tid:0] Squashing instruction PC (0x418544=>0x418548).(0=>1), seq num 50.
 340000: system.cpu.rob: [tid:0] Reading Head Instr.
 340000: system.cpu.rob: [tid:0] Reading Head Instr.
 340500: system.cpu.rob: [tid:0] Squashing instructions until [sn:48].
 340500: system.cpu.rob: [tid:0] Squashing instruction PC (0x418540=>0x418544).(0=>1), seq num 49.
 340500: system.cpu.rob: [tid:0] Done squashing instructions.
 340500: system.cpu.rob: [tid:0] Reading Head Instr.
 340500: system.cpu.rob: [tid:0] Reading Head Instr.
 341000: system.cpu.rob: [tid:0] Checking if head is ready. ROB size=40
. HEAD SN=26 341000: system.cpu.rob: [tid:0] Reading Head Instr.
 341000: system.cpu.rob: [tid:0] Retiring head instruction, instruction PC (0x41850c=>0x418510).(0=>1), [sn:26]
 341000: system.cpu.rob: Updating global head ptr.
 341000: system.cpu.rob: [tid:0] Checking if head is ready. ROB size=39
. HEAD SN=27 341000: system.cpu.rob: [tid:0] Reading Head Instr.
 341000: system.cpu.rob: [tid:0] Retiring head instruction, instruction PC (0x418510=>0x418514).(0=>1), [sn:27]
 341000: system.cpu.rob: Updating global head ptr.
 341000: system.cpu.rob: [tid:0] Checking if head is ready. ROB size=38
. HEAD SN=28 341000: system.cpu.rob: [tid:0] Reading Head Instr.
 341000: system.cpu.rob: [tid:0] Retiring head instruction, instruction PC (0x418510=>0x418514).(1=>2), [sn:28]
 341000: system.cpu.rob: Updating global head ptr.
 341000: system.cpu.rob: [tid:0] Checking if head is ready. ROB size=37
. HEAD SN=29 341000: system.cpu.rob: [tid:0] Reading Head Instr.
 341000: system.cpu.rob: [tid:0] Retiring head instruction, instruction PC (0x418510=>0x418514).(2=>3), [sn:29]
 341000: system.cpu.rob: Updating global head ptr.
 341000: system.cpu.rob: [tid:0] Checking if head is ready. ROB size=36
. HEAD SN=30 341000: system.cpu.rob: [tid:0] Reading Head Instr.
 341000: system.cpu.rob: [tid:0] Retiring head instruction, instruction PC (0x418514=>0x418518).(0=>1), [sn:30]
 341000: system.cpu.rob: Updating global head ptr.
 341000: system.cpu.rob: [tid:0] Checking if head is ready. ROB size=35
. HEAD SN=31 341000: system.cpu.rob: [tid:0] Reading Head Instr.
 341000: system.cpu.rob: [tid:0] Retiring head instruction, instruction PC (0x418518=>0x41851c).(0=>1), [sn:31]
 341000: system.cpu.rob: Updating global head ptr.
 341000: system.cpu.rob: [tid:0] Checking if head is ready. ROB size=34
. HEAD SN=32 341000: system.cpu.rob: [tid:0] Reading Head Instr.
 341000: system.cpu.rob: [tid:0] Retiring head instruction, instruction PC (0x418518=>0x41851c).(1=>2), [sn:32]
 341000: system.cpu.rob: Updating global head ptr.
 341000: system.cpu.rob: [tid:0] Checking if head is ready. ROB size=33
. HEAD SN=33 341000: system.cpu.rob: [tid:0] Reading Head Instr.
 341000: system.cpu.rob: [tid:0] Retiring head instruction, instruction PC (0x418518=>0x41851c).(2=>3), [sn:33]
 341000: system.cpu.rob: Updating global head ptr.
 341000: system.cpu.rob: [tid:0] Reading Head Instr.
 341000: system.cpu.rob: [tid:0] Reading Head Instr.
 341500: system.cpu.rob: [tid:0] Checking if head is ready. ROB size=32
. HEAD SN=34 341500: system.cpu.rob: [tid:0] Reading Head Instr.
 341500: system.cpu.rob: [tid:0] Retiring head instruction, instruction PC (0x41851c=>0x418520).(0=>1), [sn:34]
 341500: system.cpu.rob: Updating global head ptr.
 341500: system.cpu.rob: [tid:0] Checking if head is ready. ROB size=31
. HEAD SN=35 341500: system.cpu.rob: [tid:0] Reading Head Instr.
 341500: system.cpu.rob: [tid:0] Retiring head instruction, instruction PC (0x418520=>0x418524).(0=>1), [sn:35]
 341500: system.cpu.rob: Updating global head ptr.
 341500: system.cpu.rob: [tid:0] Checking if head is ready. ROB size=30
. HEAD SN=36 341500: system.cpu.rob: [tid:0] Reading Head Instr.
 341500: system.cpu.rob: [tid:0] Retiring head instruction, instruction PC (0x418524=>0x418528).(0=>1), [sn:36]
 341500: system.cpu.rob: Updating global head ptr.
 341500: system.cpu.rob: [tid:0] Checking if head is ready. ROB size=29
. HEAD SN=37 341500: system.cpu.rob: [tid:0] Reading Head Instr.
 341500: system.cpu.rob: [tid:0] Retiring head instruction, instruction PC (0x418524=>0x418528).(1=>2), [sn:37]
 341500: system.cpu.rob: Updating global head ptr.
 341500: system.cpu.rob: [tid:0] Checking if head is ready. ROB size=28
. HEAD SN=38 341500: system.cpu.rob: [tid:0] Reading Head Instr.
 341500: system.cpu.rob: [tid:0] Retiring head instruction, instruction PC (0x418524=>0x418528).(2=>3), [sn:38]
 341500: system.cpu.rob: Updating global head ptr.
 341500: system.cpu.rob: [tid:0] Checking if head is ready. ROB size=27
. HEAD SN=39 341500: system.cpu.rob: [tid:0] Reading Head Instr.
 341500: system.cpu.rob: [tid:0] Retiring head instruction, instruction PC (0x418528=>0x41852c).(0=>1), [sn:39]
 341500: system.cpu.rob: Updating global head ptr.
 341500: system.cpu.rob: [tid:0] Checking if head is ready. ROB size=26
. HEAD SN=40 341500: system.cpu.rob: [tid:0] Reading Head Instr.
 341500: system.cpu.rob: [tid:0] Retiring head instruction, instruction PC (0x418528=>0x41852c).(1=>2), [sn:40]
 341500: system.cpu.rob: Updating global head ptr.
 341500: system.cpu.rob: [tid:0] Checking if head is ready. ROB size=25
. HEAD SN=41 341500: system.cpu.rob: [tid:0] Reading Head Instr.
 341500: system.cpu.rob: [tid:0] Retiring head instruction, instruction PC (0x418528=>0x41852c).(2=>3), [sn:41]
 341500: system.cpu.rob: Updating global head ptr.
 341500: system.cpu.rob: [tid:0] Reading Head Instr.
 341500: system.cpu.rob: [tid:0] Reading Head Instr.
 342000: system.cpu.rob: [tid:0] Checking if head is ready. ROB size=24
. HEAD SN=42 342000: system.cpu.rob: [tid:0] Reading Head Instr.
 342000: system.cpu.rob: [tid:0] Retiring head instruction, instruction PC (0x41852c=>0x418530).(0=>1), [sn:42]
 342000: system.cpu.rob: Updating global head ptr.
 342000: system.cpu.rob: [tid:0] Checking if head is ready. ROB size=23
. HEAD SN=43 342000: system.cpu.rob: [tid:0] Reading Head Instr.
 342000: system.cpu.rob: [tid:0] Retiring head instruction, instruction PC (0x418530=>0x418534).(0=>1), [sn:43]
 342000: system.cpu.rob: Updating global head ptr.
 342000: system.cpu.rob: [tid:0] Checking if head is ready. ROB size=22
. HEAD SN=44 342000: system.cpu.rob: [tid:0] Reading Head Instr.
 342000: system.cpu.rob: [tid:0] Retiring head instruction, instruction PC (0x418534=>0x418538).(0=>1), [sn:44]
 342000: system.cpu.rob: Updating global head ptr.
 342000: system.cpu.rob: [tid:0] Checking if head is ready. ROB size=21
. HEAD SN=45 342000: system.cpu.rob: [tid:0] Reading Head Instr.
 342000: system.cpu.rob: [tid:0] Retiring head instruction, instruction PC (0x418538=>0x41853c).(0=>1), [sn:45]
 342000: system.cpu.rob: Updating global head ptr.
 342000: system.cpu.rob: [tid:0] Checking if head is ready. ROB size=20
. HEAD SN=46 342000: system.cpu.rob: [tid:0] Reading Head Instr.
 342000: system.cpu.rob: [tid:0] Retiring head instruction, instruction PC (0x418538=>0x41853c).(1=>2), [sn:46]
 342000: system.cpu.rob: Updating global head ptr.
 342000: system.cpu.rob: [tid:0] Checking if head is ready. ROB size=19
. HEAD SN=47 342000: system.cpu.rob: [tid:0] Reading Head Instr.
 342000: system.cpu.rob: [tid:0] Retiring head instruction, instruction PC (0x418538=>0x41853c).(2=>3), [sn:47]
 342000: system.cpu.rob: Updating global head ptr.
 342000: system.cpu.rob: [tid:0] Checking if head is ready. ROB size=18
. HEAD SN=48 342000: system.cpu.rob: [tid:0] Reading Head Instr.
 342000: system.cpu.rob: [tid:0] Retiring head instruction, instruction PC (0x41853c=>0x41854c).(0=>1), [sn:48]
 342000: system.cpu.rob: Updating global head ptr.
 342000: system.cpu.rob: [tid:0] Checking if head is ready. ROB size=17
. HEAD SN=49 342000: system.cpu.rob: [tid:0] Reading Head Instr.
 342000: system.cpu.rob: [tid:0] Retiring head instruction, instruction PC (0x418540=>0x418544).(0=>1), [sn:49]
 342000: system.cpu.rob: Updating global head ptr.
 342000: system.cpu.rob: [tid:0] Checking if head is ready. ROB size=16
. HEAD SN=50 342000: system.cpu.rob: [tid:0] Reading Head Instr.
 342000: system.cpu.rob: [tid:0] Retiring head instruction, instruction PC (0x418544=>0x418548).(0=>1), [sn:50]
 342000: system.cpu.rob: Updating global head ptr.
 342000: system.cpu.rob: [tid:0] Checking if head is ready. ROB size=15
. HEAD SN=51 342000: system.cpu.rob: [tid:0] Reading Head Instr.
 342000: system.cpu.rob: [tid:0] Retiring head instruction, instruction PC (0x418548=>0x41854c).(0=>1), [sn:51]
 342000: system.cpu.rob: Updating global head ptr.
 342000: system.cpu.rob: [tid:0] Checking if head is ready. ROB size=14
. HEAD SN=52 342000: system.cpu.rob: [tid:0] Reading Head Instr.
 342000: system.cpu.rob: [tid:0] Retiring head instruction, instruction PC (0x41854c=>0x418550).(0=>1), [sn:52]
 342000: system.cpu.rob: Updating global head ptr.
 342000: system.cpu.rob: [tid:0] Checking if head is ready. ROB size=13
. HEAD SN=53 342000: system.cpu.rob: [tid:0] Reading Head Instr.
 342000: system.cpu.rob: [tid:0] Retiring head instruction, instruction PC (0x418550=>0x418554).(0=>1), [sn:53]
 342000: system.cpu.rob: Updating global head ptr.
 342000: system.cpu.rob: [tid:0] Checking if head is ready. ROB size=12
. HEAD SN=54 342000: system.cpu.rob: [tid:0] Reading Head Instr.
 342000: system.cpu.rob: [tid:0] Retiring head instruction, instruction PC (0x418554=>0x418558).(0=>1), [sn:54]
 342000: system.cpu.rob: Updating global head ptr.
 342000: system.cpu.rob: [tid:0] Checking if head is ready. ROB size=11
. HEAD SN=55 342000: system.cpu.rob: [tid:0] Reading Head Instr.
 342000: system.cpu.rob: [tid:0] Retiring head instruction, instruction PC (0x418558=>0x41855c).(0=>1), [sn:55]
 342000: system.cpu.rob: Updating global head ptr.
 342000: system.cpu.rob: [tid:0] Checking if head is ready. ROB size=10
. HEAD SN=56 342000: system.cpu.rob: [tid:0] Reading Head Instr.
 342000: system.cpu.rob: [tid:0] Retiring head instruction, instruction PC (0x41855c=>0x418560).(0=>1), [sn:56]
 342000: system.cpu.rob: Updating global head ptr.
 342000: system.cpu.rob: [tid:0] Checking if head is ready. ROB size=9
. HEAD SN=57 342000: system.cpu.rob: [tid:0] Reading Head Instr.
 342000: system.cpu.rob: [tid:0] Retiring head instruction, instruction PC (0x418560=>0x418564).(0=>1), [sn:57]
 342000: system.cpu.rob: Updating global head ptr.
 342000: system.cpu.rob: [tid:0] Checking if head is ready. ROB size=8
. HEAD SN=58 342000: system.cpu.rob: [tid:0] Reading Head Instr.
 342000: system.cpu.rob: [tid:0] Retiring head instruction, instruction PC (0x418564=>0x418568).(0=>1), [sn:58]
 342000: system.cpu.rob: Updating global head ptr.
 342000: system.cpu.rob: [tid:0] Checking if head is ready. ROB size=7
. HEAD SN=59 342000: system.cpu.rob: [tid:0] Reading Head Instr.
 342000: system.cpu.rob: [tid:0] Retiring head instruction, instruction PC (0x418568=>0x41856c).(0=>1), [sn:59]
 342000: system.cpu.rob: Updating global head ptr.
 342000: system.cpu.rob: [tid:0] Checking if head is ready. ROB size=6
. HEAD SN=60 342000: system.cpu.rob: [tid:0] Reading Head Instr.
 342000: system.cpu.rob: [tid:0] Retiring head instruction, instruction PC (0x41856c=>0x418570).(0=>1), [sn:60]
 342000: system.cpu.rob: Updating global head ptr.
 342000: system.cpu.rob: [tid:0] Checking if head is ready. ROB size=5
. HEAD SN=61 342000: system.cpu.rob: [tid:0] Reading Head Instr.
 342000: system.cpu.rob: [tid:0] Retiring head instruction, instruction PC (0x418570=>0x418574).(0=>1), [sn:61]
 342000: system.cpu.rob: Updating global head ptr.
 342000: system.cpu.rob: [tid:0] Checking if head is ready. ROB size=4
. HEAD SN=62 342000: system.cpu.rob: [tid:0] Reading Head Instr.
 342000: system.cpu.rob: [tid:0] Retiring head instruction, instruction PC (0x418574=>0x418578).(0=>1), [sn:62]
 342000: system.cpu.rob: Updating global head ptr.
 342000: system.cpu.rob: [tid:0] Checking if head is ready. ROB size=3
. HEAD SN=63 342000: system.cpu.rob: [tid:0] Reading Head Instr.
 342000: system.cpu.rob: [tid:0] Retiring head instruction, instruction PC (0x418578=>0x41857c).(0=>1), [sn:63]
 342000: system.cpu.rob: Updating global head ptr.
 342000: system.cpu.rob: [tid:0] Checking if head is ready. ROB size=2
. HEAD SN=64 342000: system.cpu.rob: [tid:0] Reading Head Instr.
 342000: system.cpu.rob: [tid:0] Retiring head instruction, instruction PC (0x418578=>0x41857c).(1=>2), [sn:64]
 342000: system.cpu.rob: Updating global head ptr.
 342000: system.cpu.rob: [tid:0] Checking if head is ready. ROB size=1
. HEAD SN=65 342000: system.cpu.rob: [tid:0] Reading Head Instr.
 342000: system.cpu.rob: [tid:0] Retiring head instruction, instruction PC (0x41857c=>0x418580).(0=>1), [sn:65]
 342000: system.cpu.rob: Updating global head ptr.
 343500: system.cpu.rob: Adding inst PC (0x41854c=>0x418550).(0=>1) to the ROB.
 343500: system.cpu.rob: [tid:0] Now has 1 instructions.
 343500: system.cpu.rob: Adding inst PC (0x418550=>0x418554).(0=>1) to the ROB.
 343500: system.cpu.rob: [tid:0] Now has 2 instructions.
 343500: system.cpu.rob: Adding inst PC (0x418554=>0x418558).(0=>1) to the ROB.
 343500: system.cpu.rob: [tid:0] Now has 3 instructions.
 343500: system.cpu.rob: Adding inst PC (0x418558=>0x41855c).(0=>1) to the ROB.
 343500: system.cpu.rob: [tid:0] Now has 4 instructions.
 343500: system.cpu.rob: Adding inst PC (0x41855c=>0x418560).(0=>1) to the ROB.
 343500: system.cpu.rob: [tid:0] Now has 5 instructions.
 343500: system.cpu.rob: Adding inst PC (0x418560=>0x418564).(0=>1) to the ROB.
 343500: system.cpu.rob: [tid:0] Now has 6 instructions.
 343500: system.cpu.rob: Adding inst PC (0x418564=>0x418568).(0=>1) to the ROB.
 343500: system.cpu.rob: [tid:0] Now has 7 instructions.
 343500: system.cpu.rob: Adding inst PC (0x418568=>0x41856c).(0=>1) to the ROB.
 343500: system.cpu.rob: [tid:0] Now has 8 instructions.
 343500: system.cpu.rob: [tid:0] Checking if head is ready. ROB size=8
. HEAD SN=66 343500: system.cpu.rob: [tid:0] Reading Head Instr.
 343500: system.cpu.rob: [tid:0] Reading Head Instr.
 344000: system.cpu.rob: [tid:0] Checking if head is ready. ROB size=8
. HEAD SN=66 344000: system.cpu.rob: [tid:0] Reading Head Instr.
 344000: system.cpu.rob: [tid:0] Reading Head Instr.
 344500: system.cpu.rob: Adding inst PC (0x41856c=>0x418570).(0=>1) to the ROB.
 344500: system.cpu.rob: [tid:0] Now has 9 instructions.
 344500: system.cpu.rob: Adding inst PC (0x418570=>0x418574).(0=>1) to the ROB.
 344500: system.cpu.rob: [tid:0] Now has 10 instructions.
 344500: system.cpu.rob: Adding inst PC (0x418574=>0x418578).(0=>1) to the ROB.
 344500: system.cpu.rob: [tid:0] Now has 11 instructions.
 344500: system.cpu.rob: Adding inst PC (0x418578=>0x41857c).(0=>1) to the ROB.
 344500: system.cpu.rob: [tid:0] Now has 12 instructions.
 344500: system.cpu.rob: Adding inst PC (0x418578=>0x41857c).(1=>2) to the ROB.
 344500: system.cpu.rob: [tid:0] Now has 13 instructions.
 344500: system.cpu.rob: Adding inst PC (0x41857c=>0x418580).(0=>1) to the ROB.
 344500: system.cpu.rob: [tid:0] Now has 14 instructions.
 344500: system.cpu.rob: [tid:0] Checking if head is ready. ROB size=14
. HEAD SN=66 344500: system.cpu.rob: [tid:0] Reading Head Instr.
 344500: system.cpu.rob: [tid:0] Reading Head Instr.
 345000: system.cpu.rob: [tid:0] Checking if head is ready. ROB size=14
. HEAD SN=66 345000: system.cpu.rob: [tid:0] Reading Head Instr.
 345000: system.cpu.rob: [tid:0] Reading Head Instr.
 345500: system.cpu.rob: [tid:0] Assigned WIB Load Vector Pointer: 1
 345500: system.cpu.rob: WIB: [tid:0] loadPtr 1 set for instruction. [sn:72]
 345500: system.cpu.rob: WIB: [tid:0] loadPtr 1 set for instruction. [sn:74]
 345500: system.cpu.rob: WIB: [tid:0] loadPtr 1 set for instruction. [sn:75]
 345500: system.cpu.rob: WIB: [tid:0] loadPtr 1 set for instruction. [sn:77]
 345500: system.cpu.rob: WIB: [tid:0] loadPtr 1 set for instruction. [sn:78]
 345500: system.cpu.rob: WIB: [tid:0] loadPtr 1 set for instruction. [sn:79]
 345500: system.cpu.rob: [tid:0] Checking if head is ready. ROB size=14
. HEAD SN=66 345500: system.cpu.rob: [tid:0] Reading Head Instr.
 345500: system.cpu.rob: [tid:0] Reading Head Instr.
 346000: system.cpu.rob: WIB: Instruction waiting on loadPtr 1. [sn:72]
 346000: system.cpu.rob: [tid:0] WIB Reading instruction in bank 6. Waiting Status:1 [sn:72]
 346000: system.cpu.rob: WIB: Instruction waiting on loadPtr 1. [sn:74]
 346000: system.cpu.rob: [tid:0] WIB Reading instruction in bank 8. Waiting Status:1 [sn:74]
 346000: system.cpu.rob: WIB: Instruction waiting on loadPtr 1. [sn:75]
 346000: system.cpu.rob: [tid:0] WIB Reading instruction in bank 9. Waiting Status:1 [sn:75]
 346000: system.cpu.rob: WIB: Instruction waiting on loadPtr 1. [sn:75]
 346000: system.cpu.rob: WIB: Instruction waiting on loadPtr 1. [sn:77]
 346000: system.cpu.rob: [tid:0] WIB Reading instruction in bank 11. Waiting Status:1 [sn:77]
 346000: system.cpu.rob: WIB: Instruction waiting on loadPtr 1. [sn:77]
 346000: system.cpu.rob: WIB: Instruction waiting on loadPtr 1. [sn:78]
 346000: system.cpu.rob: [tid:0] WIB Reading instruction in bank 12. Waiting Status:1 [sn:78]
 346000: system.cpu.rob: WIB: Instruction waiting on loadPtr 1. [sn:79]
 346000: system.cpu.rob: [tid:0] WIB Reading instruction in bank 13. Waiting Status:1 [sn:79]
 346000: system.cpu.rob: WIB: Instruction waiting on loadPtr 1. [sn:79]
 346000: system.cpu.rob: [tid:0] Checking if head is ready. ROB size=14
. HEAD SN=66 346000: system.cpu.rob: [tid:0] Reading Head Instr.
 346000: system.cpu.rob: [tid:0] Retiring head instruction, instruction PC (0x41854c=>0x418550).(0=>1), [sn:66]
 346000: system.cpu.rob: Updating global head ptr.
 346000: system.cpu.rob: [tid:0] Checking if head is ready. ROB size=13
. HEAD SN=67 346000: system.cpu.rob: [tid:0] Reading Head Instr.
 346000: system.cpu.rob: [tid:0] Retiring head instruction, instruction PC (0x418550=>0x418554).(0=>1), [sn:67]
 346000: system.cpu.rob: Updating global head ptr.
 346000: system.cpu.rob: [tid:0] Checking if head is ready. ROB size=12
. HEAD SN=68 346000: system.cpu.rob: [tid:0] Reading Head Instr.
 346000: system.cpu.rob: [tid:0] Reading Head Instr.
 346500: system.cpu.rob: WIB: Instruction waiting on loadPtr 1. [sn:72]
 346500: system.cpu.rob: [tid:0] WIB Reading instruction in bank 6. Waiting Status:1 [sn:72]
 346500: system.cpu.rob: WIB: Instruction waiting on loadPtr 1. [sn:72]
 346500: system.cpu.rob: WIB: Instruction waiting on loadPtr 1. [sn:74]
 346500: system.cpu.rob: [tid:0] WIB Reading instruction in bank 8. Waiting Status:1 [sn:74]
 346500: system.cpu.rob: WIB: Instruction waiting on loadPtr 1. [sn:74]
 346500: system.cpu.rob: WIB: Instruction waiting on loadPtr 1. [sn:75]
 346500: system.cpu.rob: [tid:0] WIB Reading instruction in bank 9. Waiting Status:1 [sn:75]
 346500: system.cpu.rob: WIB: Instruction waiting on loadPtr 1. [sn:77]
 346500: system.cpu.rob: [tid:0] WIB Reading instruction in bank 11. Waiting Status:1 [sn:77]
 346500: system.cpu.rob: WIB: Instruction waiting on loadPtr 1. [sn:78]
 346500: system.cpu.rob: [tid:0] WIB Reading instruction in bank 12. Waiting Status:1 [sn:78]
 346500: system.cpu.rob: WIB: Instruction waiting on loadPtr 1. [sn:78]
 346500: system.cpu.rob: WIB: Instruction waiting on loadPtr 1. [sn:79]
 346500: system.cpu.rob: [tid:0] WIB Reading instruction in bank 13. Waiting Status:1 [sn:79]
 346500: system.cpu.rob: [tid:0] Checking if head is ready. ROB size=12
. HEAD SN=68 346500: system.cpu.rob: [tid:0] Reading Head Instr.
 346500: system.cpu.rob: [tid:0] Reading Head Instr.
 347000: system.cpu.rob: WIB: Instruction waiting on loadPtr 1. [sn:72]
 347000: system.cpu.rob: [tid:0] WIB Reading instruction in bank 6. Waiting Status:1 [sn:72]
 347000: system.cpu.rob: WIB: Instruction waiting on loadPtr 1. [sn:74]
 347000: system.cpu.rob: [tid:0] WIB Reading instruction in bank 8. Waiting Status:1 [sn:74]
 347000: system.cpu.rob: WIB: Instruction waiting on loadPtr 1. [sn:75]
 347000: system.cpu.rob: [tid:0] WIB Reading instruction in bank 9. Waiting Status:1 [sn:75]
 347000: system.cpu.rob: WIB: Instruction waiting on loadPtr 1. [sn:75]
 347000: system.cpu.rob: WIB: Instruction waiting on loadPtr 1. [sn:77]
 347000: system.cpu.rob: [tid:0] WIB Reading instruction in bank 11. Waiting Status:1 [sn:77]
 347000: system.cpu.rob: WIB: Instruction waiting on loadPtr 1. [sn:77]
 347000: system.cpu.rob: WIB: Instruction waiting on loadPtr 1. [sn:78]
 347000: system.cpu.rob: [tid:0] WIB Reading instruction in bank 12. Waiting Status:1 [sn:78]
 347000: system.cpu.rob: WIB: Instruction waiting on loadPtr 1. [sn:79]
 347000: system.cpu.rob: [tid:0] WIB Reading instruction in bank 13. Waiting Status:1 [sn:79]
 347000: system.cpu.rob: WIB: Instruction waiting on loadPtr 1. [sn:79]
 347000: system.cpu.rob: [tid:0] Checking if head is ready. ROB size=12
. HEAD SN=68 347000: system.cpu.rob: [tid:0] Reading Head Instr.
 347000: system.cpu.rob: [tid:0] Reading Head Instr.
 347500: system.cpu.rob: WIB: Instruction waiting on loadPtr 1. [sn:72]
 347500: system.cpu.rob: [tid:0] WIB Reading instruction in bank 6. Waiting Status:1 [sn:72]
 347500: system.cpu.rob: WIB: Instruction waiting on loadPtr 1. [sn:72]
 347500: system.cpu.rob: WIB: Instruction waiting on loadPtr 1. [sn:74]
 347500: system.cpu.rob: [tid:0] WIB Reading instruction in bank 8. Waiting Status:1 [sn:74]
 347500: system.cpu.rob: WIB: Instruction waiting on loadPtr 1. [sn:74]
 347500: system.cpu.rob: WIB: Instruction waiting on loadPtr 1. [sn:75]
 347500: system.cpu.rob: [tid:0] WIB Reading instruction in bank 9. Waiting Status:1 [sn:75]
 347500: system.cpu.rob: WIB: Instruction waiting on loadPtr 1. [sn:77]
 347500: system.cpu.rob: [tid:0] WIB Reading instruction in bank 11. Waiting Status:1 [sn:77]
 347500: system.cpu.rob: WIB: Instruction waiting on loadPtr 1. [sn:78]
 347500: system.cpu.rob: [tid:0] WIB Reading instruction in bank 12. Waiting Status:1 [sn:78]
 347500: system.cpu.rob: WIB: Instruction waiting on loadPtr 1. [sn:78]
 347500: system.cpu.rob: WIB: Instruction waiting on loadPtr 1. [sn:79]
 347500: system.cpu.rob: [tid:0] WIB Reading instruction in bank 13. Waiting Status:1 [sn:79]
 347500: system.cpu.rob: [tid:0] Checking if head is ready. ROB size=12
. HEAD SN=68 347500: system.cpu.rob: [tid:0] Reading Head Instr.
 347500: system.cpu.rob: [tid:0] Reading Head Instr.
 348000: system.cpu.rob: WIB: Instruction waiting on loadPtr 1. [sn:72]
 348000: system.cpu.rob: [tid:0] WIB Reading instruction in bank 6. Waiting Status:1 [sn:72]
 348000: system.cpu.rob: WIB: Instruction waiting on loadPtr 1. [sn:74]
 348000: system.cpu.rob: [tid:0] WIB Reading instruction in bank 8. Waiting Status:1 [sn:74]
 348000: system.cpu.rob: WIB: Instruction waiting on loadPtr 1. [sn:75]
 348000: system.cpu.rob: [tid:0] WIB Reading instruction in bank 9. Waiting Status:1 [sn:75]
 348000: system.cpu.rob: WIB: Instruction waiting on loadPtr 1. [sn:75]
 348000: system.cpu.rob: WIB: Instruction waiting on loadPtr 1. [sn:77]
 348000: system.cpu.rob: [tid:0] WIB Reading instruction in bank 11. Waiting Status:1 [sn:77]
 348000: system.cpu.rob: WIB: Instruction waiting on loadPtr 1. [sn:77]
 348000: system.cpu.rob: WIB: Instruction waiting on loadPtr 1. [sn:78]
 348000: system.cpu.rob: [tid:0] WIB Reading instruction in bank 12. Waiting Status:1 [sn:78]
 348000: system.cpu.rob: WIB: Instruction waiting on loadPtr 1. [sn:79]
 348000: system.cpu.rob: [tid:0] WIB Reading instruction in bank 13. Waiting Status:1 [sn:79]
 348000: system.cpu.rob: WIB: Instruction waiting on loadPtr 1. [sn:79]
 348000: system.cpu.rob: [tid:0] Checking if head is ready. ROB size=12
. HEAD SN=68 348000: system.cpu.rob: [tid:0] Reading Head Instr.
 348000: system.cpu.rob: [tid:0] Reading Head Instr.
 348500: system.cpu.rob: WIB: Instruction waiting on loadPtr 1. [sn:72]
 348500: system.cpu.rob: [tid:0] WIB Reading instruction in bank 6. Waiting Status:1 [sn:72]
 348500: system.cpu.rob: WIB: Instruction waiting on loadPtr 1. [sn:72]
 348500: system.cpu.rob: WIB: Instruction waiting on loadPtr 1. [sn:74]
 348500: system.cpu.rob: [tid:0] WIB Reading instruction in bank 8. Waiting Status:1 [sn:74]
 348500: system.cpu.rob: WIB: Instruction waiting on loadPtr 1. [sn:74]
 348500: system.cpu.rob: WIB: Instruction waiting on loadPtr 1. [sn:75]
 348500: system.cpu.rob: [tid:0] WIB Reading instruction in bank 9. Waiting Status:1 [sn:75]
 348500: system.cpu.rob: WIB: Instruction waiting on loadPtr 1. [sn:77]
 348500: system.cpu.rob: [tid:0] WIB Reading instruction in bank 11. Waiting Status:1 [sn:77]
 348500: system.cpu.rob: WIB: Instruction waiting on loadPtr 1. [sn:78]
 348500: system.cpu.rob: [tid:0] WIB Reading instruction in bank 12. Waiting Status:1 [sn:78]
 348500: system.cpu.rob: WIB: Instruction waiting on loadPtr 1. [sn:78]
 348500: system.cpu.rob: WIB: Instruction waiting on loadPtr 1. [sn:79]
 348500: system.cpu.rob: [tid:0] WIB Reading instruction in bank 13. Waiting Status:1 [sn:79]
 348500: system.cpu.rob: [tid:0] Checking if head is ready. ROB size=12
. HEAD SN=68 348500: system.cpu.rob: [tid:0] Reading Head Instr.
 348500: system.cpu.rob: [tid:0] Reading Head Instr.
 349000: system.cpu.rob: WIB: Instruction waiting on loadPtr 1. [sn:72]
 349000: system.cpu.rob: [tid:0] WIB Reading instruction in bank 6. Waiting Status:1 [sn:72]
 349000: system.cpu.rob: WIB: Instruction waiting on loadPtr 1. [sn:74]
 349000: system.cpu.rob: [tid:0] WIB Reading instruction in bank 8. Waiting Status:1 [sn:74]
 349000: system.cpu.rob: WIB: Instruction waiting on loadPtr 1. [sn:75]
 349000: system.cpu.rob: [tid:0] WIB Reading instruction in bank 9. Waiting Status:1 [sn:75]
 349000: system.cpu.rob: WIB: Instruction waiting on loadPtr 1. [sn:75]
 349000: system.cpu.rob: WIB: Instruction waiting on loadPtr 1. [sn:77]
 349000: system.cpu.rob: [tid:0] WIB Reading instruction in bank 11. Waiting Status:1 [sn:77]
 349000: system.cpu.rob: WIB: Instruction waiting on loadPtr 1. [sn:77]
 349000: system.cpu.rob: WIB: Instruction waiting on loadPtr 1. [sn:78]
 349000: system.cpu.rob: [tid:0] WIB Reading instruction in bank 12. Waiting Status:1 [sn:78]
 349000: system.cpu.rob: WIB: Instruction waiting on loadPtr 1. [sn:79]
 349000: system.cpu.rob: [tid:0] WIB Reading instruction in bank 13. Waiting Status:1 [sn:79]
 349000: system.cpu.rob: WIB: Instruction waiting on loadPtr 1. [sn:79]
 349000: system.cpu.rob: [tid:0] Checking if head is ready. ROB size=12
. HEAD SN=68 349000: system.cpu.rob: [tid:0] Reading Head Instr.
 349000: system.cpu.rob: [tid:0] Reading Head Instr.
 349500: system.cpu.rob: WIB: Instruction waiting on loadPtr 1. [sn:72]
 349500: system.cpu.rob: [tid:0] WIB Reading instruction in bank 6. Waiting Status:1 [sn:72]
 349500: system.cpu.rob: WIB: Instruction waiting on loadPtr 1. [sn:72]
 349500: system.cpu.rob: WIB: Instruction waiting on loadPtr 1. [sn:74]
 349500: system.cpu.rob: [tid:0] WIB Reading instruction in bank 8. Waiting Status:1 [sn:74]
 349500: system.cpu.rob: WIB: Instruction waiting on loadPtr 1. [sn:74]
 349500: system.cpu.rob: WIB: Instruction waiting on loadPtr 1. [sn:75]
 349500: system.cpu.rob: [tid:0] WIB Reading instruction in bank 9. Waiting Status:1 [sn:75]
 349500: system.cpu.rob: WIB: Instruction waiting on loadPtr 1. [sn:77]
 349500: system.cpu.rob: [tid:0] WIB Reading instruction in bank 11. Waiting Status:1 [sn:77]
 349500: system.cpu.rob: WIB: Instruction waiting on loadPtr 1. [sn:78]
 349500: system.cpu.rob: [tid:0] WIB Reading instruction in bank 12. Waiting Status:1 [sn:78]
 349500: system.cpu.rob: WIB: Instruction waiting on loadPtr 1. [sn:78]
 349500: system.cpu.rob: WIB: Instruction waiting on loadPtr 1. [sn:79]
 349500: system.cpu.rob: [tid:0] WIB Reading instruction in bank 13. Waiting Status:1 [sn:79]
 349500: system.cpu.rob: [tid:0] Checking if head is ready. ROB size=12
. HEAD SN=68 349500: system.cpu.rob: [tid:0] Reading Head Instr.
 349500: system.cpu.rob: [tid:0] Reading Head Instr.
 350000: system.cpu.rob: WIB: Instruction waiting on loadPtr 1. [sn:72]
 350000: system.cpu.rob: [tid:0] WIB Reading instruction in bank 6. Waiting Status:1 [sn:72]
 350000: system.cpu.rob: WIB: Instruction waiting on loadPtr 1. [sn:74]
 350000: system.cpu.rob: [tid:0] WIB Reading instruction in bank 8. Waiting Status:1 [sn:74]
 350000: system.cpu.rob: WIB: Instruction waiting on loadPtr 1. [sn:75]
 350000: system.cpu.rob: [tid:0] WIB Reading instruction in bank 9. Waiting Status:1 [sn:75]
 350000: system.cpu.rob: WIB: Instruction waiting on loadPtr 1. [sn:75]
 350000: system.cpu.rob: WIB: Instruction waiting on loadPtr 1. [sn:77]
 350000: system.cpu.rob: [tid:0] WIB Reading instruction in bank 11. Waiting Status:1 [sn:77]
 350000: system.cpu.rob: WIB: Instruction waiting on loadPtr 1. [sn:77]
 350000: system.cpu.rob: WIB: Instruction waiting on loadPtr 1. [sn:78]
 350000: system.cpu.rob: [tid:0] WIB Reading instruction in bank 12. Waiting Status:1 [sn:78]
 350000: system.cpu.rob: WIB: Instruction waiting on loadPtr 1. [sn:79]
 350000: system.cpu.rob: [tid:0] WIB Reading instruction in bank 13. Waiting Status:1 [sn:79]
 350000: system.cpu.rob: WIB: Instruction waiting on loadPtr 1. [sn:79]
 350000: system.cpu.rob: [tid:0] Checking if head is ready. ROB size=12
. HEAD SN=68 350000: system.cpu.rob: [tid:0] Reading Head Instr.
 350000: system.cpu.rob: [tid:0] Reading Head Instr.
 350500: system.cpu.rob: WIB: Instruction waiting on loadPtr 1. [sn:72]
 350500: system.cpu.rob: [tid:0] WIB Reading instruction in bank 6. Waiting Status:1 [sn:72]
 350500: system.cpu.rob: WIB: Instruction waiting on loadPtr 1. [sn:72]
 350500: system.cpu.rob: WIB: Instruction waiting on loadPtr 1. [sn:74]
 350500: system.cpu.rob: [tid:0] WIB Reading instruction in bank 8. Waiting Status:1 [sn:74]
 350500: system.cpu.rob: WIB: Instruction waiting on loadPtr 1. [sn:74]
 350500: system.cpu.rob: WIB: Instruction waiting on loadPtr 1. [sn:75]
 350500: system.cpu.rob: [tid:0] WIB Reading instruction in bank 9. Waiting Status:1 [sn:75]
 350500: system.cpu.rob: WIB: Instruction waiting on loadPtr 1. [sn:77]
 350500: system.cpu.rob: [tid:0] WIB Reading instruction in bank 11. Waiting Status:1 [sn:77]
 350500: system.cpu.rob: WIB: Instruction waiting on loadPtr 1. [sn:78]
 350500: system.cpu.rob: [tid:0] WIB Reading instruction in bank 12. Waiting Status:1 [sn:78]
 350500: system.cpu.rob: WIB: Instruction waiting on loadPtr 1. [sn:78]
 350500: system.cpu.rob: WIB: Instruction waiting on loadPtr 1. [sn:79]
 350500: system.cpu.rob: [tid:0] WIB Reading instruction in bank 13. Waiting Status:1 [sn:79]
 350500: system.cpu.rob: [tid:0] Checking if head is ready. ROB size=12
. HEAD SN=68 350500: system.cpu.rob: [tid:0] Reading Head Instr.
 350500: system.cpu.rob: [tid:0] Reading Head Instr.
 351000: system.cpu.rob: WIB: Instruction waiting on loadPtr 1. [sn:72]
 351000: system.cpu.rob: [tid:0] WIB Reading instruction in bank 6. Waiting Status:1 [sn:72]
 351000: system.cpu.rob: WIB: Instruction waiting on loadPtr 1. [sn:74]
 351000: system.cpu.rob: [tid:0] WIB Reading instruction in bank 8. Waiting Status:1 [sn:74]
 351000: system.cpu.rob: WIB: Instruction waiting on loadPtr 1. [sn:75]
 351000: system.cpu.rob: [tid:0] WIB Reading instruction in bank 9. Waiting Status:1 [sn:75]
 351000: system.cpu.rob: WIB: Instruction waiting on loadPtr 1. [sn:75]
 351000: system.cpu.rob: WIB: Instruction waiting on loadPtr 1. [sn:77]
 351000: system.cpu.rob: [tid:0] WIB Reading instruction in bank 11. Waiting Status:1 [sn:77]
 351000: system.cpu.rob: WIB: Instruction waiting on loadPtr 1. [sn:77]
 351000: system.cpu.rob: WIB: Instruction waiting on loadPtr 1. [sn:78]
 351000: system.cpu.rob: [tid:0] WIB Reading instruction in bank 12. Waiting Status:1 [sn:78]
 351000: system.cpu.rob: WIB: Instruction waiting on loadPtr 1. [sn:79]
 351000: system.cpu.rob: [tid:0] WIB Reading instruction in bank 13. Waiting Status:1 [sn:79]
 351000: system.cpu.rob: WIB: Instruction waiting on loadPtr 1. [sn:79]
 351000: system.cpu.rob: [tid:0] Checking if head is ready. ROB size=12
. HEAD SN=68 351000: system.cpu.rob: [tid:0] Reading Head Instr.
 351000: system.cpu.rob: [tid:0] Reading Head Instr.
 351500: system.cpu.rob: WIB: Instruction waiting on loadPtr 1. [sn:72]
 351500: system.cpu.rob: [tid:0] WIB Reading instruction in bank 6. Waiting Status:1 [sn:72]
 351500: system.cpu.rob: WIB: Instruction waiting on loadPtr 1. [sn:72]
 351500: system.cpu.rob: WIB: Instruction waiting on loadPtr 1. [sn:74]
 351500: system.cpu.rob: [tid:0] WIB Reading instruction in bank 8. Waiting Status:1 [sn:74]
 351500: system.cpu.rob: WIB: Instruction waiting on loadPtr 1. [sn:74]
 351500: system.cpu.rob: WIB: Instruction waiting on loadPtr 1. [sn:75]
 351500: system.cpu.rob: [tid:0] WIB Reading instruction in bank 9. Waiting Status:1 [sn:75]
 351500: system.cpu.rob: WIB: Instruction waiting on loadPtr 1. [sn:77]
 351500: system.cpu.rob: [tid:0] WIB Reading instruction in bank 11. Waiting Status:1 [sn:77]
 351500: system.cpu.rob: WIB: Instruction waiting on loadPtr 1. [sn:78]
 351500: system.cpu.rob: [tid:0] WIB Reading instruction in bank 12. Waiting Status:1 [sn:78]
 351500: system.cpu.rob: WIB: Instruction waiting on loadPtr 1. [sn:78]
 351500: system.cpu.rob: WIB: Instruction waiting on loadPtr 1. [sn:79]
 351500: system.cpu.rob: [tid:0] WIB Reading instruction in bank 13. Waiting Status:1 [sn:79]
 351500: system.cpu.rob: [tid:0] Checking if head is ready. ROB size=12
. HEAD SN=68 351500: system.cpu.rob: [tid:0] Reading Head Instr.
 351500: system.cpu.rob: [tid:0] Reading Head Instr.
 352000: system.cpu.rob: WIB: Instruction waiting on loadPtr 1. [sn:72]
 352000: system.cpu.rob: [tid:0] WIB Reading instruction in bank 6. Waiting Status:1 [sn:72]
 352000: system.cpu.rob: WIB: Instruction waiting on loadPtr 1. [sn:74]
 352000: system.cpu.rob: [tid:0] WIB Reading instruction in bank 8. Waiting Status:1 [sn:74]
 352000: system.cpu.rob: WIB: Instruction waiting on loadPtr 1. [sn:75]
 352000: system.cpu.rob: [tid:0] WIB Reading instruction in bank 9. Waiting Status:1 [sn:75]
 352000: system.cpu.rob: WIB: Instruction waiting on loadPtr 1. [sn:75]
 352000: system.cpu.rob: WIB: Instruction waiting on loadPtr 1. [sn:77]
 352000: system.cpu.rob: [tid:0] WIB Reading instruction in bank 11. Waiting Status:1 [sn:77]
 352000: system.cpu.rob: WIB: Instruction waiting on loadPtr 1. [sn:77]
 352000: system.cpu.rob: WIB: Instruction waiting on loadPtr 1. [sn:78]
 352000: system.cpu.rob: [tid:0] WIB Reading instruction in bank 12. Waiting Status:1 [sn:78]
 352000: system.cpu.rob: WIB: Instruction waiting on loadPtr 1. [sn:79]
 352000: system.cpu.rob: [tid:0] WIB Reading instruction in bank 13. Waiting Status:1 [sn:79]
 352000: system.cpu.rob: WIB: Instruction waiting on loadPtr 1. [sn:79]
 352000: system.cpu.rob: [tid:0] Checking if head is ready. ROB size=12
. HEAD SN=68 352000: system.cpu.rob: [tid:0] Reading Head Instr.
 352000: system.cpu.rob: [tid:0] Reading Head Instr.
 397000: system.cpu.rob: WIB: Instruction waiting on loadPtr 1. [sn:72]
 397000: system.cpu.rob: [tid:0] WIB Reading instruction in bank 6. Waiting Status:1 [sn:72]
 397000: system.cpu.rob: WIB: Instruction waiting on loadPtr 1. [sn:72]
 397000: system.cpu.rob: WIB: Instruction waiting on loadPtr 1. [sn:74]
 397000: system.cpu.rob: [tid:0] WIB Reading instruction in bank 8. Waiting Status:1 [sn:74]
 397000: system.cpu.rob: WIB: Instruction waiting on loadPtr 1. [sn:74]
 397000: system.cpu.rob: WIB: Instruction waiting on loadPtr 1. [sn:75]
 397000: system.cpu.rob: [tid:0] WIB Reading instruction in bank 9. Waiting Status:1 [sn:75]
 397000: system.cpu.rob: WIB: Instruction waiting on loadPtr 1. [sn:77]
 397000: system.cpu.rob: [tid:0] WIB Reading instruction in bank 11. Waiting Status:1 [sn:77]
 397000: system.cpu.rob: WIB: Instruction waiting on loadPtr 1. [sn:78]
 397000: system.cpu.rob: [tid:0] WIB Reading instruction in bank 12. Waiting Status:1 [sn:78]
 397000: system.cpu.rob: WIB: Instruction waiting on loadPtr 1. [sn:78]
 397000: system.cpu.rob: WIB: Instruction waiting on loadPtr 1. [sn:79]
 397000: system.cpu.rob: [tid:0] WIB Reading instruction in bank 13. Waiting Status:1 [sn:79]
 397000: system.cpu.rob: [tid:0] Checking if head is ready. ROB size=12
. HEAD SN=68 397000: system.cpu.rob: [tid:0] Reading Head Instr.
 397000: system.cpu.rob: [tid:0] Reading Head Instr.
 397500: system.cpu.rob: WIB: Instruction waiting on loadPtr 1. [sn:72]
 397500: system.cpu.rob: [tid:0] WIB Reading instruction in bank 6. Waiting Status:1 [sn:72]
 397500: system.cpu.rob: WIB: Instruction waiting on loadPtr 1. [sn:74]
 397500: system.cpu.rob: [tid:0] WIB Reading instruction in bank 8. Waiting Status:1 [sn:74]
 397500: system.cpu.rob: WIB: Instruction waiting on loadPtr 1. [sn:75]
 397500: system.cpu.rob: [tid:0] WIB Reading instruction in bank 9. Waiting Status:1 [sn:75]
 397500: system.cpu.rob: WIB: Instruction waiting on loadPtr 1. [sn:75]
 397500: system.cpu.rob: WIB: Instruction waiting on loadPtr 1. [sn:77]
 397500: system.cpu.rob: [tid:0] WIB Reading instruction in bank 11. Waiting Status:1 [sn:77]
 397500: system.cpu.rob: WIB: Instruction waiting on loadPtr 1. [sn:77]
 397500: system.cpu.rob: WIB: Instruction waiting on loadPtr 1. [sn:78]
 397500: system.cpu.rob: [tid:0] WIB Reading instruction in bank 12. Waiting Status:1 [sn:78]
 397500: system.cpu.rob: WIB: Instruction waiting on loadPtr 1. [sn:79]
 397500: system.cpu.rob: [tid:0] WIB Reading instruction in bank 13. Waiting Status:1 [sn:79]
 397500: system.cpu.rob: WIB: Instruction waiting on loadPtr 1. [sn:79]
 397500: system.cpu.rob: [tid:0] Checking if head is ready. ROB size=12
. HEAD SN=68 397500: system.cpu.rob: [tid:0] Reading Head Instr.
 397500: system.cpu.rob: [tid:0] Reading Head Instr.
 398000: system.cpu.rob: WIB: Instruction waiting on loadPtr 1. [sn:72]
 398000: system.cpu.rob: [tid:0] WIB Reading instruction in bank 6. Waiting Status:1 [sn:72]
 398000: system.cpu.rob: WIB: Instruction waiting on loadPtr 1. [sn:72]
 398000: system.cpu.rob: WIB: Instruction waiting on loadPtr 1. [sn:74]
 398000: system.cpu.rob: [tid:0] WIB Reading instruction in bank 8. Waiting Status:1 [sn:74]
 398000: system.cpu.rob: WIB: Instruction waiting on loadPtr 1. [sn:74]
 398000: system.cpu.rob: WIB: Instruction waiting on loadPtr 1. [sn:75]
 398000: system.cpu.rob: [tid:0] WIB Reading instruction in bank 9. Waiting Status:1 [sn:75]
 398000: system.cpu.rob: WIB: Instruction waiting on loadPtr 1. [sn:77]
 398000: system.cpu.rob: [tid:0] WIB Reading instruction in bank 11. Waiting Status:1 [sn:77]
 398000: system.cpu.rob: WIB: Instruction waiting on loadPtr 1. [sn:78]
 398000: system.cpu.rob: [tid:0] WIB Reading instruction in bank 12. Waiting Status:1 [sn:78]
 398000: system.cpu.rob: WIB: Instruction waiting on loadPtr 1. [sn:78]
 398000: system.cpu.rob: WIB: Instruction waiting on loadPtr 1. [sn:79]
 398000: system.cpu.rob: [tid:0] WIB Reading instruction in bank 13. Waiting Status:1 [sn:79]
 398000: system.cpu.rob: [tid:0] Checking if head is ready. ROB size=12
. HEAD SN=68 398000: system.cpu.rob: [tid:0] Reading Head Instr.
 398000: system.cpu.rob: [tid:0] Reading Head Instr.
 398500: system.cpu.rob: WIB: Instruction waiting on loadPtr 1. [sn:72]
 398500: system.cpu.rob: [tid:0] WIB Reading instruction in bank 6. Waiting Status:1 [sn:72]
 398500: system.cpu.rob: WIB: Instruction waiting on loadPtr 1. [sn:74]
 398500: system.cpu.rob: [tid:0] WIB Reading instruction in bank 8. Waiting Status:1 [sn:74]
 398500: system.cpu.rob: WIB: Instruction waiting on loadPtr 1. [sn:75]
 398500: system.cpu.rob: [tid:0] WIB Reading instruction in bank 9. Waiting Status:1 [sn:75]
 398500: system.cpu.rob: WIB: Instruction waiting on loadPtr 1. [sn:75]
 398500: system.cpu.rob: WIB: Instruction waiting on loadPtr 1. [sn:77]
 398500: system.cpu.rob: [tid:0] WIB Reading instruction in bank 11. Waiting Status:1 [sn:77]
 398500: system.cpu.rob: WIB: Instruction waiting on loadPtr 1. [sn:77]
 398500: system.cpu.rob: WIB: Instruction waiting on loadPtr 1. [sn:78]
 398500: system.cpu.rob: [tid:0] WIB Reading instruction in bank 12. Waiting Status:1 [sn:78]
 398500: system.cpu.rob: WIB: Instruction waiting on loadPtr 1. [sn:79]
 398500: system.cpu.rob: [tid:0] WIB Reading instruction in bank 13. Waiting Status:1 [sn:79]
 398500: system.cpu.rob: WIB: Instruction waiting on loadPtr 1. [sn:79]
 398500: system.cpu.rob: Adding inst PC (0x418580=>0x418584).(0=>1) to the ROB.
 398500: system.cpu.rob: [tid:0] Now has 13 instructions.
 398500: system.cpu.rob: [tid:0] Checking if head is ready. ROB size=13
. HEAD SN=68 398500: system.cpu.rob: [tid:0] Reading Head Instr.
 398500: system.cpu.rob: [tid:0] Reading Head Instr.
 399000: system.cpu.rob: WIB: Instruction waiting on loadPtr 1. [sn:72]
 399000: system.cpu.rob: [tid:0] WIB Reading instruction in bank 6. Waiting Status:1 [sn:72]
 399000: system.cpu.rob: WIB: Instruction waiting on loadPtr 1. [sn:72]
 399000: system.cpu.rob: WIB: Instruction waiting on loadPtr 1. [sn:74]
 399000: system.cpu.rob: [tid:0] WIB Reading instruction in bank 8. Waiting Status:1 [sn:74]
 399000: system.cpu.rob: WIB: Instruction waiting on loadPtr 1. [sn:74]
 399000: system.cpu.rob: WIB: Instruction waiting on loadPtr 1. [sn:75]
 399000: system.cpu.rob: [tid:0] WIB Reading instruction in bank 9. Waiting Status:1 [sn:75]
 399000: system.cpu.rob: WIB: Instruction waiting on loadPtr 1. [sn:77]
 399000: system.cpu.rob: [tid:0] WIB Reading instruction in bank 11. Waiting Status:1 [sn:77]
 399000: system.cpu.rob: WIB: Instruction waiting on loadPtr 1. [sn:78]
 399000: system.cpu.rob: [tid:0] WIB Reading instruction in bank 12. Waiting Status:1 [sn:78]
 399000: system.cpu.rob: WIB: Instruction waiting on loadPtr 1. [sn:78]
 399000: system.cpu.rob: WIB: Instruction waiting on loadPtr 1. [sn:79]
 399000: system.cpu.rob: [tid:0] WIB Reading instruction in bank 13. Waiting Status:1 [sn:79]
 399000: system.cpu.rob: [tid:0] Checking if head is ready. ROB size=13
. HEAD SN=68 399000: system.cpu.rob: [tid:0] Reading Head Instr.
 399000: system.cpu.rob: [tid:0] Reading Head Instr.
 399500: system.cpu.rob: WIB: Instruction waiting on loadPtr 1. [sn:72]
 399500: system.cpu.rob: [tid:0] WIB Reading instruction in bank 6. Waiting Status:1 [sn:72]
 399500: system.cpu.rob: WIB: Instruction waiting on loadPtr 1. [sn:74]
 399500: system.cpu.rob: [tid:0] WIB Reading instruction in bank 8. Waiting Status:1 [sn:74]
 399500: system.cpu.rob: WIB: Instruction waiting on loadPtr 1. [sn:75]
[...]
 647000: system.cpu.rob: [tid:0] WIB Reading instruction in bank 9. Waiting Status:1 [sn:75]
 647000: system.cpu.rob: WIB: Instruction waiting on loadPtr 1. [sn:75]
 647000: system.cpu.rob: [tid:0] WIB Reading instruction in bank 9. Waiting Status:1 [sn:75]
 647000: system.cpu.rob: WIB: Instruction waiting on loadPtr 1. [sn:75]
 647000: system.cpu.rob: [tid:0] WIB Reading instruction in bank 9. Waiting Status:1 [sn:75]
 647000: system.cpu.rob: WIB: Instruction waiting on loadPtr 1. [sn:75]
 647000: system.cpu.rob: [tid:0] WIB Reading instruction in bank 9. Waiting Status:1 [sn:75]
 647000: system.cpu.rob: WIB: Instruction waiting on loadPtr 1. [sn:75]
 647000: system.cpu.rob: [tid:0] WIB Reading instruction in bank 9. Waiting Status:1 [sn:75]
 647000: system.cpu.rob: WIB: Instruction waiting on loadPtr 1. [sn:75]
 647000: system.cpu.rob: [tid:0] WIB Reading instruction in bank 9. Waiting Status:1 [sn:75]
 647000: system.cpu.rob: WIB: Instruction waiting on loadPtr 1. [sn:75]
 647000: system.cpu.rob: [tid:0] WIB Reading instruction in bank 9. Waiting Status:1 [sn:75]
 647000: system.cpu.rob: WIB: Instruction waiting on loadPtr 1. [sn:75]
 647000: system.cpu.rob: [tid:0] WIB Reading instruction in bank 9. Waiting Status:1 [sn:75]
 647000: system.cpu.rob: WIB: Instruction waiting on loadPtr 1. [sn:75]
 647000: system.cpu.rob: [tid:0] WIB Reading instruction in bank 9. Waiting Status:1 [sn:75]
 647000: system.cpu.rob: WIB: Instruction waiting on loadPtr 1. [sn:75]
 647000: system.cpu.rob: [tid:0] WIB Reading instruction in bank 9. Waiting Status:1 [sn:75]
 647000: system.cpu.rob: WIB: Instruction waiting on loadPtr 1. [sn:75]
 647000: system.cpu.rob: [tid:0] WIB Reading instruction in bank 9. Waiting Status:1 [sn:75]
 647000: system.cpu.rob: WIB: Instruction waiting on loadPtr 1. [sn:75]
 647000: system.cpu.rob: [tid:0] WIB Reading instruction in bank 9. Waiting Status:1 [sn:75]
 647000: system.cpu.rob: WIB: Instruction waiting on loadPtr 1. [sn:75]
 647000: system.cpu.rob: [tid:0] WIB Reading instruction in bank 9. Waiting Status:1 [sn:75]
 647000: system.cpu.rob: WIB: Instruction waiting on loadPtr 1. [sn:75]
 647000: system.cpu.rob: [tid:0] WIB Reading instruction in bank 9. Waiting Status:1 [sn:75]
 647000: system.cpu.rob: WIB: Instruction waiting on loadPtr 1. [sn:75]
 647000: system.cpu.rob: [tid:0] WIB Reading instruction in bank 9. Waiting Status:1 [sn:75]
 647000: system.cpu.rob: WIB: Instruction waiting on loadPtr 1. [sn:75]
 647000: system.cpu.rob: [tid:0] WIB Reading instruction in bank 9. Waiting Status:1 [sn:75]
 647000: system.cpu.rob: WIB: Instruction waiting on loadPtr 1. [sn:75]
 647000: system.cpu.rob: [tid:0] WIB Reading instruction in bank 9. Waiting Status:1 [sn:75]
 647000: system.cpu.rob: [tid:0] Checking if head is ready. ROB size=53
. HEAD SN=74 647000: system.cpu.rob: [tid:0] Reading Head Instr.
 647000: system.cpu.rob: [tid:0] Reading Head Instr.
 647500: system.cpu.rob: WIB: Instruction waiting on loadPtr 3. [sn:117]
 647500: system.cpu.rob: [tid:0] WIB Reading instruction in bank 4. Waiting Status:1 [sn:117]
 647500: system.cpu.rob: WIB: Instruction waiting on loadPtr 1. [sn:75]
 647500: system.cpu.rob: [tid:0] WIB Reading instruction in bank 9. Waiting Status:1 [sn:75]
 647500: system.cpu.rob: WIB: Instruction waiting on loadPtr 1. [sn:75]
 647500: system.cpu.rob: WIB: Instruction waiting on loadPtr 1. [sn:75]
 647500: system.cpu.rob: [tid:0] WIB Reading instruction in bank 9. Waiting Status:1 [sn:75]
 647500: system.cpu.rob: WIB: Instruction waiting on loadPtr 1. [sn:75]
 647500: system.cpu.rob: [tid:0] WIB Reading instruction in bank 9. Waiting Status:1 [sn:75]
 647500: system.cpu.rob: WIB: Instruction waiting on loadPtr 1. [sn:75]
 647500: system.cpu.rob: [tid:0] WIB Reading instruction in bank 9. Waiting Status:1 [sn:75]
 647500: system.cpu.rob: WIB: Instruction waiting on loadPtr 1. [sn:75]
 647500: system.cpu.rob: [tid:0] WIB Reading instruction in bank 9. Waiting Status:1 [sn:75]
 647500: system.cpu.rob: WIB: Instruction waiting on loadPtr 1. [sn:75]
 647500: system.cpu.rob: [tid:0] WIB Reading instruction in bank 9. Waiting Status:1 [sn:75]
 647500: system.cpu.rob: WIB: Instruction waiting on loadPtr 1. [sn:75]
 647500: system.cpu.rob: [tid:0] WIB Reading instruction in bank 9. Waiting Status:1 [sn:75]
 647500: system.cpu.rob: WIB: Instruction waiting on loadPtr 1. [sn:75]
 647500: system.cpu.rob: [tid:0] WIB Reading instruction in bank 9. Waiting Status:1 [sn:75]
 647500: system.cpu.rob: WIB: Instruction waiting on loadPtr 1. [sn:75]
 647500: system.cpu.rob: [tid:0] WIB Reading instruction in bank 9. Waiting Status:1 [sn:75]
 647500: system.cpu.rob: WIB: Instruction waiting on loadPtr 1. [sn:75]
 647500: system.cpu.rob: [tid:0] WIB Reading instruction in bank 9. Waiting Status:1 [sn:75]
 647500: system.cpu.rob: WIB: Instruction waiting on loadPtr 1. [sn:75]
 647500: system.cpu.rob: [tid:0] WIB Reading instruction in bank 9. Waiting Status:1 [sn:75]
 647500: system.cpu.rob: WIB: Instruction waiting on loadPtr 1. [sn:75]
 647500: system.cpu.rob: [tid:0] WIB Reading instruction in bank 9. Waiting Status:1 [sn:75]
 647500: system.cpu.rob: WIB: Instruction waiting on loadPtr 1. [sn:75]
 647500: system.cpu.rob: [tid:0] WIB Reading instruction in bank 9. Waiting Status:1 [sn:75]
 647500: system.cpu.rob: WIB: Instruction waiting on loadPtr 1. [sn:75]
 647500: system.cpu.rob: [tid:0] WIB Reading instruction in bank 9. Waiting Status:1 [sn:75]
 647500: system.cpu.rob: WIB: Instruction waiting on loadPtr 1. [sn:75]
 647500: system.cpu.rob: [tid:0] WIB Reading instruction in bank 9. Waiting Status:1 [sn:75]
 647500: system.cpu.rob: WIB: Instruction waiting on loadPtr 1. [sn:75]
 647500: system.cpu.rob: [tid:0] WIB Reading instruction in bank 9. Waiting Status:1 [sn:75]
 647500: system.cpu.rob: WIB: Instruction waiting on loadPtr 1. [sn:75]
 647500: system.cpu.rob: [tid:0] WIB Reading instruction in bank 9. Waiting Status:1 [sn:75]
 647500: system.cpu.rob: WIB: Instruction waiting on loadPtr 1. [sn:75]
 647500: system.cpu.rob: [tid:0] WIB Reading instruction in bank 9. Waiting Status:1 [sn:75]
 647500: system.cpu.rob: WIB: Instruction waiting on loadPtr 1. [sn:75]
 647500: system.cpu.rob: [tid:0] WIB Reading instruction in bank 9. Waiting Status:1 [sn:75]
 647500: system.cpu.rob: WIB: Instruction waiting on loadPtr 1. [sn:75]
 647500: system.cpu.rob: [tid:0] WIB Reading instruction in bank 9. Waiting Status:1 [sn:75]
 647500: system.cpu.rob: WIB: Instruction waiting on loadPtr 1. [sn:75]
 647500: system.cpu.rob: [tid:0] WIB Reading instruction in bank 9. Waiting Status:1 [sn:75]
 647500: system.cpu.rob: WIB: Instruction waiting on loadPtr 1. [sn:75]
 647500: system.cpu.rob: [tid:0] WIB Reading instruction in bank 9. Waiting Status:1 [sn:75]
 647500: system.cpu.rob: WIB: Instruction waiting on loadPtr 1. [sn:75]
 647500: system.cpu.rob: [tid:0] WIB Reading instruction in bank 9. Waiting Status:1 [sn:75]
 647500: system.cpu.rob: WIB: Instruction waiting on loadPtr 1. [sn:75]
 647500: system.cpu.rob: [tid:0] WIB Reading instruction in bank 9. Waiting Status:1 [sn:75]
 647500: system.cpu.rob: WIB: Instruction waiting on loadPtr 1. [sn:75]
 647500: system.cpu.rob: [tid:0] WIB Reading instruction in bank 9. Waiting Status:1 [sn:75]
 647500: system.cpu.rob: WIB: Instruction waiting on loadPtr 1. [sn:75]
 647500: system.cpu.rob: [tid:0] WIB Reading instruction in bank 9. Waiting Status:1 [sn:75]
 647500: system.cpu.rob: WIB: Instruction waiting on loadPtr 1. [sn:75]
 647500: system.cpu.rob: [tid:0] WIB Reading instruction in bank 9. Waiting Status:1 [sn:75]
 647500: system.cpu.rob: WIB: Instruction waiting on loadPtr 1. [sn:75]
 647500: system.cpu.rob: [tid:0] WIB Reading instruction in bank 9. Waiting Status:1 [sn:75]
 647500: system.cpu.rob: WIB: Instruction waiting on loadPtr 1. [sn:75]
 647500: system.cpu.rob: [tid:0] WIB Reading instruction in bank 9. Waiting Status:1 [sn:75]
 647500: system.cpu.rob: WIB: Instruction waiting on loadPtr 1. [sn:75]
 647500: system.cpu.rob: [tid:0] WIB Reading instruction in bank 9. Waiting Status:1 [sn:75]
 647500: system.cpu.rob: WIB: Instruction waiting on loadPtr 1. [sn:75]
 647500: system.cpu.rob: [tid:0] WIB Reading instruction in bank 9. Waiting Status:1 [sn:75]
 647500: system.cpu.rob: WIB: Instruction waiting on loadPtr 1. [sn:75]
 647500: system.cpu.rob: [tid:0] WIB Reading instruction in bank 9. Waiting Status:1 [sn:75]
 647500: system.cpu.rob: WIB: Instruction waiting on loadPtr 1. [sn:75]
 647500: system.cpu.rob: [tid:0] WIB Reading instruction in bank 9. Waiting Status:1 [sn:75]
 647500: system.cpu.rob: WIB: Instruction waiting on loadPtr 1. [sn:75]
 647500: system.cpu.rob: [tid:0] WIB Reading instruction in bank 9. Waiting Status:1 [sn:75]
 647500: system.cpu.rob: WIB: Instruction waiting on loadPtr 1. [sn:75]
 647500: system.cpu.rob: [tid:0] WIB Reading instruction in bank 9. Waiting Status:1 [sn:75]
 647500: system.cpu.rob: WIB: Instruction waiting on loadPtr 1. [sn:75]
 647500: system.cpu.rob: [tid:0] WIB Reading instruction in bank 9. Waiting Status:1 [sn:75]
 647500: system.cpu.rob: WIB: Instruction waiting on loadPtr 1. [sn:75]
 647500: system.cpu.rob: [tid:0] WIB Reading instruction in bank 9. Waiting Status:1 [sn:75]
 647500: system.cpu.rob: WIB: Instruction waiting on loadPtr 1. [sn:75]
 647500: system.cpu.rob: [tid:0] WIB Reading instruction in bank 9. Waiting Status:1 [sn:75]
 647500: system.cpu.rob: WIB: Instruction waiting on loadPtr 1. [sn:75]
 647500: system.cpu.rob: [tid:0] WIB Reading instruction in bank 9. Waiting Status:1 [sn:75]
 647500: system.cpu.rob: WIB: Instruction waiting on loadPtr 1. [sn:75]
 647500: system.cpu.rob: [tid:0] WIB Reading instruction in bank 9. Waiting Status:1 [sn:75]
 647500: system.cpu.rob: WIB: Instruction waiting on loadPtr 1. [sn:75]
 647500: system.cpu.rob: [tid:0] WIB Reading instruction in bank 9. Waiting Status:1 [sn:75]
 647500: system.cpu.rob: WIB: Instruction waiting on loadPtr 1. [sn:75]
 647500: system.cpu.rob: [tid:0] WIB Reading instruction in bank 9. Waiting Status:1 [sn:75]
 647500: system.cpu.rob: WIB: Instruction waiting on loadPtr 1. [sn:75]
 647500: system.cpu.rob: [tid:0] WIB Reading instruction in bank 9. Waiting Status:1 [sn:75]
 647500: system.cpu.rob: WIB: Instruction waiting on loadPtr 1. [sn:75]
 647500: system.cpu.rob: [tid:0] WIB Reading instruction in bank 9. Waiting Status:1 [sn:75]
 647500: system.cpu.rob: WIB: Instruction waiting on loadPtr 1. [sn:75]
 647500: system.cpu.rob: [tid:0] WIB Reading instruction in bank 9. Waiting Status:1 [sn:75]
 647500: system.cpu.rob: WIB: Instruction waiting on loadPtr 1. [sn:75]
 647500: system.cpu.rob: [tid:0] WIB Reading instruction in bank 9. Waiting Status:1 [sn:75]
 647500: system.cpu.rob: WIB: Instruction waiting on loadPtr 1. [sn:75]
 647500: system.cpu.rob: [tid:0] WIB Reading instruction in bank 9. Waiting Status:1 [sn:75]
 647500: system.cpu.rob: WIB: Instruction waiting on loadPtr 1. [sn:75]
 647500: system.cpu.rob: [tid:0] WIB Reading instruction in bank 9. Waiting Status:1 [sn:75]
 647500: system.cpu.rob: WIB: Instruction waiting on loadPtr 1. [sn:75]
 647500: system.cpu.rob: [tid:0] WIB Reading instruction in bank 9. Waiting Status:1 [sn:75]
 647500: system.cpu.rob: WIB: Instruction waiting on loadPtr 1. [sn:75]
 647500: system.cpu.rob: [tid:0] WIB Reading instruction in bank 9. Waiting Status:1 [sn:75]
 647500: system.cpu.rob: WIB: Instruction waiting on loadPtr 1. [sn:75]
 647500: system.cpu.rob: [tid:0] WIB Reading instruction in bank 9. Waiting Status:1 [sn:75]
 647500: system.cpu.rob: WIB: Instruction waiting on loadPtr 1. [sn:75]
 647500: system.cpu.rob: [tid:0] WIB Reading instruction in bank 9. Waiting Status:1 [sn:75]
 647500: system.cpu.rob: WIB: Instruction waiting on loadPtr 1. [sn:75]
 647500: system.cpu.rob: [tid:0] WIB Reading instruction in bank 9. Waiting Status:1 [sn:75]
 647500: system.cpu.rob: WIB: Instruction waiting on loadPtr 1. [sn:75]
 647500: system.cpu.rob: [tid:0] WIB Reading instruction in bank 9. Waiting Status:1 [sn:75]
 647500: system.cpu.rob: WIB: Instruction waiting on loadPtr 1. [sn:75]
 647500: system.cpu.rob: [tid:0] WIB Reading instruction in bank 9. Waiting Status:1 [sn:75]
 647500: system.cpu.rob: WIB: Instruction waiting on loadPtr 1. [sn:75]
 647500: system.cpu.rob: [tid:0] WIB Reading instruction in bank 9. Waiting Status:1 [sn:75]
 647500: system.cpu.rob: WIB: Instruction waiting on loadPtr 1. [sn:75]
 647500: system.cpu.rob: [tid:0] WIB Reading instruction in bank 9. Waiting Status:1 [sn:75]
 647500: system.cpu.rob: WIB: Instruction waiting on loadPtr 1. [sn:75]
 647500: system.cpu.rob: [tid:0] WIB Reading instruction in bank 9. Waiting Status:1 [sn:75]
 647500: system.cpu.rob: WIB: Instruction waiting on loadPtr 1. [sn:75]
 647500: system.cpu.rob: [tid:0] WIB Reading instruction in bank 9. Waiting Status:1 [sn:75]
 647500: system.cpu.rob: WIB: Instruction waiting on loadPtr 1. [sn:75]
 647500: system.cpu.rob: [tid:0] WIB Reading instruction in bank 9. Waiting Status:1 [sn:75]
 647500: system.cpu.rob: WIB: Instruction waiting on loadPtr 1. [sn:75]
 647500: system.cpu.rob: [tid:0] WIB Reading instruction in bank 9. Waiting Status:1 [sn:75]
 647500: system.cpu.rob: WIB: Instruction waiting on loadPtr 1. [sn:75]
 647500: system.cpu.rob: [tid:0] WIB Reading instruction in bank 9. Waiting Status:1 [sn:75]
 647500: system.cpu.rob: WIB: Instruction waiting on loadPtr 1. [sn:75]
 647500: system.cpu.rob: [tid:0] WIB Reading instruction in bank 9. Waiting Status:1 [sn:75]
 647500: system.cpu.rob: WIB: Instruction waiting on loadPtr 1. [sn:75]
 647500: system.cpu.rob: [tid:0] WIB Reading instruction in bank 9. Waiting Status:1 [sn:75]
 647500: system.cpu.rob: [tid:0] Freed WIB Load Vector Pointer: 5
 647500: system.cpu.rob: [tid:0] Cleared load vector pointer 5 for instruction in WIB. [sn:117]
 647500: system.cpu.rob: [tid:0] Cleared load vector pointer 5 for instruction in WIB. [sn:75]
 647500: system.cpu.rob: [tid:0] Cleared load vector pointer 5 for instruction in WIB. [sn:75]
 647500: system.cpu.rob: [tid:0] Cleared load vector pointer 5 for instruction in WIB. [sn:75]
 647500: system.cpu.rob: [tid:0] Cleared load vector pointer 5 for instruction in WIB. [sn:75]
 647500: system.cpu.rob: [tid:0] Cleared load vector pointer 5 for instruction in WIB. [sn:75]
 647500: system.cpu.rob: [tid:0] Cleared load vector pointer 5 for instruction in WIB. [sn:75]
 647500: system.cpu.rob: [tid:0] Cleared load vector pointer 5 for instruction in WIB. [sn:75]
 647500: system.cpu.rob: [tid:0] Cleared load vector pointer 5 for instruction in WIB. [sn:75]
 647500: system.cpu.rob: [tid:0] Cleared load vector pointer 5 for instruction in WIB. [sn:75]
 647500: system.cpu.rob: [tid:0] Cleared load vector pointer 5 for instruction in WIB. [sn:75]
 647500: system.cpu.rob: [tid:0] Cleared load vector pointer 5 for instruction in WIB. [sn:75]
 647500: system.cpu.rob: [tid:0] Cleared load vector pointer 5 for instruction in WIB. [sn:75]
 647500: system.cpu.rob: [tid:0] Cleared load vector pointer 5 for instruction in WIB. [sn:75]
 647500: system.cpu.rob: [tid:0] Cleared load vector pointer 5 for instruction in WIB. [sn:75]
 647500: system.cpu.rob: [tid:0] Cleared load vector pointer 5 for instruction in WIB. [sn:75]
 647500: system.cpu.rob: [tid:0] Cleared load vector pointer 5 for instruction in WIB. [sn:75]
 647500: system.cpu.rob: [tid:0] Cleared load vector pointer 5 for instruction in WIB. [sn:75]
 647500: system.cpu.rob: [tid:0] Cleared load vector pointer 5 for instruction in WIB. [sn:75]
 647500: system.cpu.rob: [tid:0] Cleared load vector pointer 5 for instruction in WIB. [sn:75]
 647500: system.cpu.rob: [tid:0] Cleared load vector pointer 5 for instruction in WIB. [sn:75]
 647500: system.cpu.rob: [tid:0] Cleared load vector pointer 5 for instruction in WIB. [sn:75]
 647500: system.cpu.rob: [tid:0] Cleared load vector pointer 5 for instruction in WIB. [sn:75]
 647500: system.cpu.rob: [tid:0] Cleared load vector pointer 5 for instruction in WIB. [sn:75]
 647500: system.cpu.rob: [tid:0] Cleared load vector pointer 5 for instruction in WIB. [sn:75]
 647500: system.cpu.rob: [tid:0] Cleared load vector pointer 5 for instruction in WIB. [sn:75]
 647500: system.cpu.rob: [tid:0] Cleared load vector pointer 5 for instruction in WIB. [sn:75]
 647500: system.cpu.rob: [tid:0] Cleared load vector pointer 5 for instruction in WIB. [sn:75]
 647500: system.cpu.rob: [tid:0] Cleared load vector pointer 5 for instruction in WIB. [sn:75]
 647500: system.cpu.rob: [tid:0] Cleared load vector pointer 5 for instruction in WIB. [sn:75]
 647500: system.cpu.rob: [tid:0] Cleared load vector pointer 5 for instruction in WIB. [sn:75]
 647500: system.cpu.rob: [tid:0] Cleared load vector pointer 5 for instruction in WIB. [sn:75]
 647500: system.cpu.rob: [tid:0] Cleared load vector pointer 5 for instruction in WIB. [sn:75]
 647500: system.cpu.rob: [tid:0] Cleared load vector pointer 5 for instruction in WIB. [sn:75]
 647500: system.cpu.rob: [tid:0] Cleared load vector pointer 5 for instruction in WIB. [sn:75]
 647500: system.cpu.rob: [tid:0] Cleared load vector pointer 5 for instruction in WIB. [sn:75]
 647500: system.cpu.rob: [tid:0] Cleared load vector pointer 5 for instruction in WIB. [sn:75]
 647500: system.cpu.rob: [tid:0] Cleared load vector pointer 5 for instruction in WIB. [sn:75]
 647500: system.cpu.rob: [tid:0] Cleared load vector pointer 5 for instruction in WIB. [sn:75]
 647500: system.cpu.rob: [tid:0] Cleared load vector pointer 5 for instruction in WIB. [sn:75]
 647500: system.cpu.rob: [tid:0] Cleared load vector pointer 5 for instruction in WIB. [sn:75]
 647500: system.cpu.rob: [tid:0] Cleared load vector pointer 5 for instruction in WIB. [sn:75]
 647500: system.cpu.rob: [tid:0] Cleared load vector pointer 5 for instruction in WIB. [sn:75]
 647500: system.cpu.rob: [tid:0] Cleared load vector pointer 5 for instruction in WIB. [sn:75]
 647500: system.cpu.rob: [tid:0] Cleared load vector pointer 5 for instruction in WIB. [sn:75]
 647500: system.cpu.rob: [tid:0] Cleared load vector pointer 5 for instruction in WIB. [sn:75]
 647500: system.cpu.rob: [tid:0] Cleared load vector pointer 5 for instruction in WIB. [sn:75]
 647500: system.cpu.rob: [tid:0] Cleared load vector pointer 5 for instruction in WIB. [sn:75]
 647500: system.cpu.rob: [tid:0] Cleared load vector pointer 5 for instruction in WIB. [sn:75]
 647500: system.cpu.rob: [tid:0] Cleared load vector pointer 5 for instruction in WIB. [sn:75]
 647500: system.cpu.rob: [tid:0] Cleared load vector pointer 5 for instruction in WIB. [sn:75]
 647500: system.cpu.rob: [tid:0] Cleared load vector pointer 5 for instruction in WIB. [sn:75]
 647500: system.cpu.rob: [tid:0] Cleared load vector pointer 5 for instruction in WIB. [sn:75]
 647500: system.cpu.rob: [tid:0] Cleared load vector pointer 5 for instruction in WIB. [sn:75]
 647500: system.cpu.rob: [tid:0] Cleared load vector pointer 5 for instruction in WIB. [sn:75]
 647500: system.cpu.rob: [tid:0] Cleared load vector pointer 5 for instruction in WIB. [sn:75]
 647500: system.cpu.rob: [tid:0] Cleared load vector pointer 5 for instruction in WIB. [sn:75]
 647500: system.cpu.rob: [tid:0] Cleared load vector pointer 5 for instruction in WIB. [sn:75]
 647500: system.cpu.rob: [tid:0] Cleared load vector pointer 5 for instruction in WIB. [sn:75]
 647500: system.cpu.rob: [tid:0] Cleared load vector pointer 5 for instruction in WIB. [sn:75]
 647500: system.cpu.rob: [tid:0] Cleared load vector pointer 5 for instruction in WIB. [sn:75]
 647500: system.cpu.rob: [tid:0] Cleared load vector pointer 5 for instruction in WIB. [sn:75]
 647500: system.cpu.rob: [tid:0] Cleared load vector pointer 5 for instruction in WIB. [sn:75]
 647500: system.cpu.rob: [tid:0] Cleared load vector pointer 5 for instruction in WIB. [sn:75]
 647500: system.cpu.rob: [tid:0] Cleared load vector pointer 5 for instruction in WIB. [sn:75]
