Global frequency set at 1000000000000 ticks per second
      0: system.cpu.iq: IQ sharing policy set to Partitioned:64 entries per thread.
      0: system.cpu.rob: Created ROB
      0: system.cpu.rob: Reseting state.
      0: global: RegFile: Setting int register 38 to 0x7ffffefda0
      0: global: RegFile: Setting int register 0 to 0
      0: global: RegFile: Setting int register 1 to 0x7ffffeff5a
      0: global: RegFile: Setting int register 2 to 0
      0: system.cpu.rob: Setting active threads list pointer.
gem5 Simulator System.  https://www.gem5.org
gem5 is copyrighted software; use the --copyright option for details.

gem5 version 22.0.0.2
gem5 compiled Nov 18 2025 22:47:42
gem5 started Nov 18 2025 22:49:12
gem5 executing on ececomp4.ecn.purdue.edu, pid 1941709
command line: ./build/ECE565-ARM/gem5.opt --debug-flags=ROB,IQ,IEW configs/spec/spec_se.py --cpu-type=ArmO3CPU --maxinsts=1000000 --l1d_size=64kB --l1i_size=16kB --caches --l2cache -b sjeng

**** REAL SIMULATION ****
      0: system.cpu.iew: Issue: Processing [tid:0]
      0: system.cpu.iew: [tid:0] Not blocked, so attempting to run dispatch.
      0: system.cpu.iew: [tid:0] Getting list of reinsertion ready instructions from WIB
      0: system.cpu.iew: [tid:0] There are 0 reinsertion ready instructions from WIB
      0: system.cpu.iq: Attempting to schedule ready instructions from the IQ.
      0: system.cpu.iq: Not able to schedule any instructions.
      0: system.cpu.iew: Processing [tid:0]
      0: system.cpu.iew: [tid:0], Dispatch dispatched 0 instructions.
      0: system.cpu.iew: IQ has 64 free entries (Can schedule: 0).  LQ has 32 free entries. SQ has 32 free entries.
      0: system.cpu.iew: IEW switching to idle
      0: system.cpu.rob: Does not need to squash due to being empty [sn:0]
    500: system.cpu.iew: Issue: Processing [tid:0]
    500: system.cpu.iew: [tid:0] Squashing all instructions.
    500: system.cpu.iq: [tid:0] Starting to squash instructions in the IQ.
    500: system.cpu.iq: [tid:0] Squashing until sequence number 0!
    500: system.cpu.iew: Removing skidbuffer instructions until [sn:0] [tid:0]
    500: system.cpu.iew: [tid:0] Removing incoming rename instructions
    500: system.cpu.iq: Attempting to schedule ready instructions from the IQ.
    500: system.cpu.iq: Not able to schedule any instructions.
    500: system.cpu.iew: Processing [tid:0]
    500: system.cpu.iew: [tid:0], Dispatch dispatched 0 instructions.
    500: system.cpu.iew: IQ has 64 free entries (Can schedule: 0).  LQ has 32 free entries. SQ has 32 free entries.
   1000: system.cpu.iew: Issue: Processing [tid:0]
   1000: system.cpu.iew: [tid:0] Done squashing, switching to running.
   1000: system.cpu.iew: [tid:0] Not blocked, so attempting to run dispatch.
   1000: system.cpu.iew: [tid:0] Getting list of reinsertion ready instructions from WIB
   1000: system.cpu.iew: [tid:0] There are 0 reinsertion ready instructions from WIB
   1000: system.cpu.iq: Attempting to schedule ready instructions from the IQ.
   1000: system.cpu.iq: Not able to schedule any instructions.
   1000: system.cpu.iew: Processing [tid:0]
   1000: system.cpu.iew: [tid:0], Dispatch dispatched 0 instructions.
   1000: system.cpu.iew: IQ has 64 free entries (Can schedule: 0).  LQ has 32 free entries. SQ has 32 free entries.
   1500: system.cpu.iew: Issue: Processing [tid:0]
   1500: system.cpu.iew: [tid:0] Not blocked, so attempting to run dispatch.
   1500: system.cpu.iew: [tid:0] Getting list of reinsertion ready instructions from WIB
   1500: system.cpu.iew: [tid:0] There are 0 reinsertion ready instructions from WIB
   1500: system.cpu.iq: Attempting to schedule ready instructions from the IQ.
   1500: system.cpu.iq: Not able to schedule any instructions.
   1500: system.cpu.iew: Processing [tid:0]
   1500: system.cpu.iew: [tid:0], Dispatch dispatched 0 instructions.
   1500: system.cpu.iew: IQ has 64 free entries (Can schedule: 0).  LQ has 32 free entries. SQ has 32 free entries.
   2000: system.cpu.iew: Issue: Processing [tid:0]
   2000: system.cpu.iew: [tid:0] Not blocked, so attempting to run dispatch.
   2000: system.cpu.iew: [tid:0] Getting list of reinsertion ready instructions from WIB
   2000: system.cpu.iew: [tid:0] There are 0 reinsertion ready instructions from WIB
   2000: system.cpu.iq: Attempting to schedule ready instructions from the IQ.
   2000: system.cpu.iq: Not able to schedule any instructions.
   2000: system.cpu.iew: Processing [tid:0]
   2000: system.cpu.iew: [tid:0], Dispatch dispatched 0 instructions.
   2000: system.cpu.iew: IQ has 64 free entries (Can schedule: 0).  LQ has 32 free entries. SQ has 32 free entries.
   2500: system.cpu.iew: Issue: Processing [tid:0]
   2500: system.cpu.iew: [tid:0] Not blocked, so attempting to run dispatch.
   2500: system.cpu.iew: [tid:0] Getting list of reinsertion ready instructions from WIB
   2500: system.cpu.iew: [tid:0] There are 0 reinsertion ready instructions from WIB
   2500: system.cpu.iq: Attempting to schedule ready instructions from the IQ.
   2500: system.cpu.iq: Not able to schedule any instructions.
   2500: system.cpu.iew: Processing [tid:0]
   2500: system.cpu.iew: [tid:0], Dispatch dispatched 0 instructions.
   2500: system.cpu.iew: IQ has 64 free entries (Can schedule: 0).  LQ has 32 free entries. SQ has 32 free entries.
   3000: system.cpu.iew: Issue: Processing [tid:0]
   3000: system.cpu.iew: [tid:0] Not blocked, so attempting to run dispatch.
   3000: system.cpu.iew: [tid:0] Getting list of reinsertion ready instructions from WIB
   3000: system.cpu.iew: [tid:0] There are 0 reinsertion ready instructions from WIB
   3000: system.cpu.iq: Attempting to schedule ready instructions from the IQ.
   3000: system.cpu.iq: Not able to schedule any instructions.
   3000: system.cpu.iew: Processing [tid:0]
   3000: system.cpu.iew: [tid:0], Dispatch dispatched 0 instructions.
   3000: system.cpu.iew: IQ has 64 free entries (Can schedule: 0).  LQ has 32 free entries. SQ has 32 free entries.
   3500: system.cpu.iew: Issue: Processing [tid:0]
   3500: system.cpu.iew: [tid:0] Not blocked, so attempting to run dispatch.
   3500: system.cpu.iew: [tid:0] Getting list of reinsertion ready instructions from WIB
   3500: system.cpu.iew: [tid:0] There are 0 reinsertion ready instructions from WIB
   3500: system.cpu.iq: Attempting to schedule ready instructions from the IQ.
   3500: system.cpu.iq: Not able to schedule any instructions.
   3500: system.cpu.iew: Processing [tid:0]
   3500: system.cpu.iew: [tid:0], Dispatch dispatched 0 instructions.
   3500: system.cpu.iew: IQ has 64 free entries (Can schedule: 0).  LQ has 32 free entries. SQ has 32 free entries.
   4000: system.cpu.iew: Issue: Processing [tid:0]
   4000: system.cpu.iew: [tid:0] Not blocked, so attempting to run dispatch.
   4000: system.cpu.iew: [tid:0] Getting list of reinsertion ready instructions from WIB
   4000: system.cpu.iew: [tid:0] There are 0 reinsertion ready instructions from WIB
   4000: system.cpu.iq: Attempting to schedule ready instructions from the IQ.
   4000: system.cpu.iq: Not able to schedule any instructions.
   4000: system.cpu.iew: Processing [tid:0]
   4000: system.cpu.iew: [tid:0], Dispatch dispatched 0 instructions.
   4000: system.cpu.iew: IQ has 64 free entries (Can schedule: 0).  LQ has 32 free entries. SQ has 32 free entries.
   4500: system.cpu.iew: Issue: Processing [tid:0]
   4500: system.cpu.iew: [tid:0] Not blocked, so attempting to run dispatch.
   4500: system.cpu.iew: [tid:0] Getting list of reinsertion ready instructions from WIB
   4500: system.cpu.iew: [tid:0] There are 0 reinsertion ready instructions from WIB
   4500: system.cpu.iq: Attempting to schedule ready instructions from the IQ.
   4500: system.cpu.iq: Not able to schedule any instructions.
   4500: system.cpu.iew: Processing [tid:0]
   4500: system.cpu.iew: [tid:0], Dispatch dispatched 0 instructions.
   4500: system.cpu.iew: IQ has 64 free entries (Can schedule: 0).  LQ has 32 free entries. SQ has 32 free entries.
   5000: system.cpu.iew: Issue: Processing [tid:0]
   5000: system.cpu.iew: [tid:0] Not blocked, so attempting to run dispatch.
   5000: system.cpu.iew: [tid:0] Getting list of reinsertion ready instructions from WIB
   5000: system.cpu.iew: [tid:0] There are 0 reinsertion ready instructions from WIB
   5000: system.cpu.iq: Attempting to schedule ready instructions from the IQ.
   5000: system.cpu.iq: Not able to schedule any instructions.
   5000: system.cpu.iew: Processing [tid:0]
   5000: system.cpu.iew: [tid:0], Dispatch dispatched 0 instructions.
   5000: system.cpu.iew: IQ has 64 free entries (Can schedule: 0).  LQ has 32 free entries. SQ has 32 free entries.
   5500: system.cpu.iew: Issue: Processing [tid:0]
   5500: system.cpu.iew: [tid:0] Not blocked, so attempting to run dispatch.
   5500: system.cpu.iew: [tid:0] Getting list of reinsertion ready instructions from WIB
   5500: system.cpu.iew: [tid:0] There are 0 reinsertion ready instructions from WIB
   5500: system.cpu.iq: Attempting to schedule ready instructions from the IQ.
   5500: system.cpu.iq: Not able to schedule any instructions.
   5500: system.cpu.iew: Processing [tid:0]
   5500: system.cpu.iew: [tid:0], Dispatch dispatched 0 instructions.
   5500: system.cpu.iew: IQ has 64 free entries (Can schedule: 0).  LQ has 32 free entries. SQ has 32 free entries.
  89000: system.cpu.iew: Issue: Processing [tid:0]
  89000: system.cpu.iew: [tid:0] Not blocked, so attempting to run dispatch.
  89000: system.cpu.iew: [tid:0] Getting list of reinsertion ready instructions from WIB
  89000: system.cpu.iew: [tid:0] There are 0 reinsertion ready instructions from WIB
  89000: system.cpu.iq: Attempting to schedule ready instructions from the IQ.
  89000: system.cpu.iq: Not able to schedule any instructions.
  89000: system.cpu.iew: Processing [tid:0]
  89000: system.cpu.iew: [tid:0], Dispatch dispatched 0 instructions.
  89000: system.cpu.iew: IQ has 64 free entries (Can schedule: 0).  LQ has 32 free entries. SQ has 32 free entries.
  89500: system.cpu.iew: Issue: Processing [tid:0]
  89500: system.cpu.iew: [tid:0] Not blocked, so attempting to run dispatch.
  89500: system.cpu.iew: [tid:0] Getting list of reinsertion ready instructions from WIB
  89500: system.cpu.iew: [tid:0] There are 0 reinsertion ready instructions from WIB
  89500: system.cpu.iq: Attempting to schedule ready instructions from the IQ.
  89500: system.cpu.iq: Not able to schedule any instructions.
  89500: system.cpu.iew: Processing [tid:0]
  89500: system.cpu.iew: [tid:0], Dispatch dispatched 0 instructions.
  89500: system.cpu.iew: IQ has 64 free entries (Can schedule: 0).  LQ has 32 free entries. SQ has 32 free entries.
  90000: global: [sn:3] has 1 ready out of 2 sources. RTI 0)
  90000: global: [sn:3] has 2 ready out of 2 sources. RTI 0)
  90000: system.cpu.iew: Issue: Processing [tid:0]
  90000: system.cpu.iew: [tid:0] Not blocked, so attempting to run dispatch.
  90000: system.cpu.iew: [tid:0] Getting list of reinsertion ready instructions from WIB
  90000: system.cpu.iew: [tid:0] There are 0 reinsertion ready instructions from WIB
  90000: system.cpu.iq: Attempting to schedule ready instructions from the IQ.
  90000: system.cpu.iq: Not able to schedule any instructions.
  90000: system.cpu.iew: Processing [tid:0]
  90000: system.cpu.iew: [tid:0], Dispatch dispatched 0 instructions.
  90000: system.cpu.iew: IQ has 64 free entries (Can schedule: 0).  LQ has 32 free entries. SQ has 32 free entries.
  90500: system.cpu.iew: Issue: Processing [tid:0]
  90500: system.cpu.iew: [tid:0] Not blocked, so attempting to run dispatch.
  90500: system.cpu.iew: [tid:0] Getting list of reinsertion ready instructions from WIB
  90500: system.cpu.iew: [tid:0] There are 0 reinsertion ready instructions from WIB
  90500: system.cpu.iq: Attempting to schedule ready instructions from the IQ.
  90500: system.cpu.iq: Not able to schedule any instructions.
  90500: system.cpu.iew: Processing [tid:0]
  90500: system.cpu.iew: [tid:0], Dispatch dispatched 0 instructions.
  90500: system.cpu.iew: IQ has 64 free entries (Can schedule: 0).  LQ has 32 free entries. SQ has 32 free entries.
  90500: system.cpu.rob: Adding inst PC (0x401ef4=>0x401ef8).(0=>1) to the ROB.
  90500: system.cpu.rob: [tid:0] Now has 1 instructions.
  90500: system.cpu.rob: Adding inst PC (0x401ef8=>0x401efc).(0=>1) to the ROB.
  90500: system.cpu.rob: [tid:0] Now has 2 instructions.
  90500: system.cpu.rob: Adding inst PC (0x401efc=>0x401f00).(0=>1) to the ROB.
  90500: system.cpu.rob: [tid:0] Now has 3 instructions.
  90500: system.cpu.rob: [tid:0] Checking if head is ready. ROB size=3
. HEAD SN=1  90500: system.cpu.rob: [tid:0] Reading Head Instr.
  90500: system.cpu.rob: [tid:0] Reading Head Instr.
  91000: system.cpu.iew: Issue: Processing [tid:0]
  91000: system.cpu.iew: [tid:0] Not blocked, so attempting to run dispatch.
  91000: system.cpu.iew: [tid:0] Getting list of reinsertion ready instructions from WIB
  91000: system.cpu.iew: [tid:0] There are 0 reinsertion ready instructions from WIB
  91000: system.cpu.iew: [tid:0] Issue: Adding PC (0x401ef4=>0x401ef8).(0=>1) [sn:1] [tid:0] to IQ.
  91000: system.cpu.iq: Adding instruction [sn:1] PC (0x401ef4=>0x401ef8).(0=>1) to the IQ.
  91000: system.cpu.iq: Instruction is ready to issue, putting it onto the ready list, PC (0x401ef4=>0x401ef8).(0=>1) opclass:1 [sn:1].
  91000: system.cpu.iew: [tid:0] Issue: Adding PC (0x401ef8=>0x401efc).(0=>1) [sn:2] [tid:0] to IQ.
  91000: system.cpu.iq: Adding instruction [sn:2] PC (0x401ef8=>0x401efc).(0=>1) to the IQ.
  91000: system.cpu.iq: Instruction is ready to issue, putting it onto the ready list, PC (0x401ef8=>0x401efc).(0=>1) opclass:1 [sn:2].
  91000: system.cpu.iew: [tid:0] Issue: Adding PC (0x401efc=>0x401f00).(0=>1) [sn:3] [tid:0] to IQ.
  91000: system.cpu.iq: Adding instruction [sn:3] PC (0x401efc=>0x401f00).(0=>1) to the IQ.
  91000: system.cpu.iq: Instruction is ready to issue, putting it onto the ready list, PC (0x401efc=>0x401f00).(0=>1) opclass:1 [sn:3].
  91000: system.cpu.iq: Attempting to schedule ready instructions from the IQ.
  91000: system.cpu.iq: Thread 0: Issuing instruction PC (0x401ef4=>0x401ef8).(0=>1) [sn:1]
  91000: system.cpu.iq: Thread 0: Issuing instruction PC (0x401ef8=>0x401efc).(0=>1) [sn:2]
  91000: system.cpu.iq: Thread 0: Issuing instruction PC (0x401efc=>0x401f00).(0=>1) [sn:3]
  91000: system.cpu.iew: Processing [tid:0]
  91000: system.cpu.iew: [tid:0], Dispatch dispatched 3 instructions.
  91000: system.cpu.iew: IQ has 64 free entries (Can schedule: 0).  LQ has 32 free entries. SQ has 32 free entries.
  91000: system.cpu.rob: [tid:0] Checking if head is ready. ROB size=3
. HEAD SN=1  91000: system.cpu.rob: [tid:0] Reading Head Instr.
  91000: system.cpu.rob: [tid:0] Reading Head Instr.
  91500: system.cpu.iew: Issue: Processing [tid:0]
  91500: system.cpu.iew: [tid:0] Not blocked, so attempting to run dispatch.
  91500: system.cpu.iew: [tid:0] Getting list of reinsertion ready instructions from WIB
  91500: system.cpu.iew: [tid:0] There are 0 reinsertion ready instructions from WIB
  91500: system.cpu.iew: Execute: Executing instructions from IQ.
  91500: system.cpu.iew: Execute: Processing PC (0x401ef4=>0x401ef8).(0=>1), [tid:0] [sn:1].
  91500: global: RegFile: Setting int register 42 to 0
  91500: system.cpu.iew: Current wb cycle: 0, width: 8, numInst: 0
wbActual:0
  91500: system.cpu.iew: Execute: Executing instructions from IQ.
  91500: system.cpu.iew: Execute: Processing PC (0x401ef8=>0x401efc).(0=>1), [tid:0] [sn:2].
  91500: global: RegFile: Setting int register 43 to 0
  91500: system.cpu.iew: Current wb cycle: 0, width: 8, numInst: 1
wbActual:1
  91500: system.cpu.iew: Execute: Executing instructions from IQ.
  91500: system.cpu.iew: Execute: Processing PC (0x401efc=>0x401f00).(0=>1), [tid:0] [sn:3].
  91500: global: RegFile: Access to int register 0, has data 0
  91500: global: RegFile: Setting int register 44 to 0
  91500: system.cpu.iew: Current wb cycle: 0, width: 8, numInst: 2
wbActual:2
  91500: system.cpu.iew: Sending instructions to commit, [sn:1] PC (0x401ef4=>0x401ef8).(0=>1).
  91500: system.cpu.iq: Waking dependents of completed instruction.
  91500: system.cpu.iq: Waking any dependents on register 42 (IntRegClass).
  91500: system.cpu.iew: Setting Destination Register 42 (IntRegClass)
  91500: system.cpu.iew: Sending instructions to commit, [sn:2] PC (0x401ef8=>0x401efc).(0=>1).
  91500: system.cpu.iq: Waking dependents of completed instruction.
  91500: system.cpu.iq: Waking any dependents on register 43 (IntRegClass).
  91500: system.cpu.iew: Setting Destination Register 43 (IntRegClass)
  91500: system.cpu.iew: Sending instructions to commit, [sn:3] PC (0x401efc=>0x401f00).(0=>1).
  91500: system.cpu.iq: Waking dependents of completed instruction.
  91500: system.cpu.iq: Waking any dependents on register 44 (IntRegClass).
  91500: system.cpu.iew: Setting Destination Register 44 (IntRegClass)
  91500: system.cpu.iq: Attempting to schedule ready instructions from the IQ.
  91500: system.cpu.iq: Not able to schedule any instructions.
  91500: system.cpu.iew: Processing [tid:0]
  91500: system.cpu.iew: [tid:0], Dispatch dispatched 0 instructions.
  91500: system.cpu.iew: IQ has 64 free entries (Can schedule: 0).  LQ has 32 free entries. SQ has 32 free entries.
  91500: system.cpu.rob: [tid:0] Checking if head is ready. ROB size=3
. HEAD SN=1  91500: system.cpu.rob: [tid:0] Reading Head Instr.
  91500: system.cpu.rob: [tid:0] Reading Head Instr.
  92000: system.cpu.iew: Issue: Processing [tid:0]
  92000: system.cpu.iew: [tid:0] Not blocked, so attempting to run dispatch.
  92000: system.cpu.iew: [tid:0] Getting list of reinsertion ready instructions from WIB
  92000: system.cpu.iew: [tid:0] There are 0 reinsertion ready instructions from WIB
  92000: system.cpu.iq: Attempting to schedule ready instructions from the IQ.
  92000: system.cpu.iq: Not able to schedule any instructions.
  92000: system.cpu.iew: Processing [tid:0]
  92000: system.cpu.iew: [tid:0], Dispatch dispatched 0 instructions.
  92000: system.cpu.iew: IQ has 64 free entries (Can schedule: 0).  LQ has 32 free entries. SQ has 32 free entries.
  92000: system.cpu.rob: [tid:0] Checking if head is ready. ROB size=3
. HEAD SN=1  92000: system.cpu.rob: [tid:0] Reading Head Instr.
  92000: system.cpu.rob: [tid:0] Reading Head Instr.
  92500: system.cpu.iew: Issue: Processing [tid:0]
  92500: system.cpu.iew: [tid:0] Not blocked, so attempting to run dispatch.
  92500: system.cpu.iew: [tid:0] Getting list of reinsertion ready instructions from WIB
  92500: system.cpu.iew: [tid:0] There are 0 reinsertion ready instructions from WIB
  92500: system.cpu.iq: Attempting to schedule ready instructions from the IQ.
  92500: system.cpu.iq: Not able to schedule any instructions.
  92500: system.cpu.iew: Processing [tid:0]
  92500: system.cpu.iew: [tid:0], Dispatch dispatched 0 instructions.
  92500: system.cpu.iew: IQ has 64 free entries (Can schedule: 0).  LQ has 32 free entries. SQ has 32 free entries.
  92500: system.cpu.rob: [tid:0] Checking if head is ready. ROB size=3
. HEAD SN=1  92500: system.cpu.rob: [tid:0] Reading Head Instr.
  92500: system.cpu.rob: [tid:0] Retiring head instruction, instruction PC (0x401ef4=>0x401ef8).(0=>1), [sn:1]
  92500: system.cpu.rob: Updating global head ptr.
  92500: system.cpu.rob: [tid:0] Checking if head is ready. ROB size=2
. HEAD SN=2  92500: system.cpu.rob: [tid:0] Reading Head Instr.
  92500: system.cpu.rob: [tid:0] Retiring head instruction, instruction PC (0x401ef8=>0x401efc).(0=>1), [sn:2]
  92500: system.cpu.rob: Updating global head ptr.
  92500: system.cpu.rob: [tid:0] Checking if head is ready. ROB size=1
. HEAD SN=3  92500: system.cpu.rob: [tid:0] Reading Head Instr.
  92500: system.cpu.rob: [tid:0] Retiring head instruction, instruction PC (0x401efc=>0x401f00).(0=>1), [sn:3]
  92500: system.cpu.rob: Updating global head ptr.
  93000: system.cpu.iew: Issue: Processing [tid:0]
  93000: system.cpu.iew: [tid:0] Not blocked, so attempting to run dispatch.
  93000: system.cpu.iew: [tid:0] Getting list of reinsertion ready instructions from WIB
  93000: system.cpu.iew: [tid:0] There are 0 reinsertion ready instructions from WIB
  93000: system.cpu.iq: Attempting to schedule ready instructions from the IQ.
  93000: system.cpu.iq: Not able to schedule any instructions.
  93000: system.cpu.iew: Processing [tid:0]
  93000: system.cpu.iq: [tid:0] Committing instructions older than [sn:3]
  93000: system.cpu.iew: [tid:0], Dispatch dispatched 0 instructions.
  93000: system.cpu.iew: IQ has 64 free entries (Can schedule: 0).  LQ has 32 free entries. SQ has 32 free entries.
  93500: system.cpu.iew: Issue: Processing [tid:0]
  93500: system.cpu.iew: [tid:0] Not blocked, so attempting to run dispatch.
  93500: system.cpu.iew: [tid:0] Getting list of reinsertion ready instructions from WIB
  93500: system.cpu.iew: [tid:0] There are 0 reinsertion ready instructions from WIB
  93500: system.cpu.iq: Attempting to schedule ready instructions from the IQ.
  93500: system.cpu.iq: Not able to schedule any instructions.
  93500: system.cpu.iew: Processing [tid:0]
  93500: system.cpu.iew: [tid:0], Dispatch dispatched 0 instructions.
  93500: system.cpu.iew: IQ has 64 free entries (Can schedule: 0).  LQ has 32 free entries. SQ has 32 free entries.
  94000: system.cpu.iew: Issue: Processing [tid:0]
  94000: system.cpu.iew: [tid:0] Not blocked, so attempting to run dispatch.
  94000: system.cpu.iew: [tid:0] Getting list of reinsertion ready instructions from WIB
  94000: system.cpu.iew: [tid:0] There are 0 reinsertion ready instructions from WIB
  94000: system.cpu.iq: Attempting to schedule ready instructions from the IQ.
  94000: system.cpu.iq: Not able to schedule any instructions.
  94000: system.cpu.iew: Processing [tid:0]
  94000: system.cpu.iew: [tid:0], Dispatch dispatched 0 instructions.
  94000: system.cpu.iew: IQ has 64 free entries (Can schedule: 0).  LQ has 32 free entries. SQ has 32 free entries.
  94500: system.cpu.iew: Issue: Processing [tid:0]
  94500: system.cpu.iew: [tid:0] Not blocked, so attempting to run dispatch.
  94500: system.cpu.iew: [tid:0] Getting list of reinsertion ready instructions from WIB
  94500: system.cpu.iew: [tid:0] There are 0 reinsertion ready instructions from WIB
  94500: system.cpu.iq: Attempting to schedule ready instructions from the IQ.
  94500: system.cpu.iq: Not able to schedule any instructions.
  94500: system.cpu.iew: Processing [tid:0]
  94500: system.cpu.iew: [tid:0], Dispatch dispatched 0 instructions.
  94500: system.cpu.iew: IQ has 64 free entries (Can schedule: 0).  LQ has 32 free entries. SQ has 32 free entries.
  95000: system.cpu.iew: Issue: Processing [tid:0]
  95000: system.cpu.iew: [tid:0] Not blocked, so attempting to run dispatch.
  95000: system.cpu.iew: [tid:0] Getting list of reinsertion ready instructions from WIB
  95000: system.cpu.iew: [tid:0] There are 0 reinsertion ready instructions from WIB
  95000: system.cpu.iq: Attempting to schedule ready instructions from the IQ.
  95000: system.cpu.iq: Not able to schedule any instructions.
  95000: system.cpu.iew: Processing [tid:0]
  95000: system.cpu.iew: [tid:0], Dispatch dispatched 0 instructions.
  95000: system.cpu.iew: IQ has 64 free entries (Can schedule: 0).  LQ has 32 free entries. SQ has 32 free entries.
  95500: system.cpu.iew: Issue: Processing [tid:0]
  95500: system.cpu.iew: [tid:0] Not blocked, so attempting to run dispatch.
  95500: system.cpu.iew: [tid:0] Getting list of reinsertion ready instructions from WIB
  95500: system.cpu.iew: [tid:0] There are 0 reinsertion ready instructions from WIB
  95500: system.cpu.iq: Attempting to schedule ready instructions from the IQ.
  95500: system.cpu.iq: Not able to schedule any instructions.
  95500: system.cpu.iew: Processing [tid:0]
  95500: system.cpu.iew: [tid:0], Dispatch dispatched 0 instructions.
  95500: system.cpu.iew: IQ has 64 free entries (Can schedule: 0).  LQ has 32 free entries. SQ has 32 free entries.
  96000: system.cpu.iew: Issue: Processing [tid:0]
  96000: system.cpu.iew: [tid:0] Not blocked, so attempting to run dispatch.
  96000: system.cpu.iew: [tid:0] Getting list of reinsertion ready instructions from WIB
  96000: system.cpu.iew: [tid:0] There are 0 reinsertion ready instructions from WIB
  96000: system.cpu.iq: Attempting to schedule ready instructions from the IQ.
  96000: system.cpu.iq: Not able to schedule any instructions.
  96000: system.cpu.iew: Processing [tid:0]
  96000: system.cpu.iew: [tid:0], Dispatch dispatched 0 instructions.
  96000: system.cpu.iew: IQ has 64 free entries (Can schedule: 0).  LQ has 32 free entries. SQ has 32 free entries.
  96500: system.cpu.iew: Issue: Processing [tid:0]
  96500: system.cpu.iew: [tid:0] Not blocked, so attempting to run dispatch.
  96500: system.cpu.iew: [tid:0] Getting list of reinsertion ready instructions from WIB
  96500: system.cpu.iew: [tid:0] There are 0 reinsertion ready instructions from WIB
  96500: system.cpu.iq: Attempting to schedule ready instructions from the IQ.
  96500: system.cpu.iq: Not able to schedule any instructions.
  96500: system.cpu.iew: Processing [tid:0]
  96500: system.cpu.iew: [tid:0], Dispatch dispatched 0 instructions.
  96500: system.cpu.iew: IQ has 64 free entries (Can schedule: 0).  LQ has 32 free entries. SQ has 32 free entries.
  97000: system.cpu.iew: Issue: Processing [tid:0]
  97000: system.cpu.iew: [tid:0] Not blocked, so attempting to run dispatch.
  97000: system.cpu.iew: [tid:0] Getting list of reinsertion ready instructions from WIB
  97000: system.cpu.iew: [tid:0] There are 0 reinsertion ready instructions from WIB
  97000: system.cpu.iq: Attempting to schedule ready instructions from the IQ.
  97000: system.cpu.iq: Not able to schedule any instructions.
  97000: system.cpu.iew: Processing [tid:0]
  97000: system.cpu.iew: [tid:0], Dispatch dispatched 0 instructions.
  97000: system.cpu.iew: IQ has 64 free entries (Can schedule: 0).  LQ has 32 free entries. SQ has 32 free entries.
  97500: system.cpu.iew: Issue: Processing [tid:0]
  97500: system.cpu.iew: [tid:0] Not blocked, so attempting to run dispatch.
  97500: system.cpu.iew: [tid:0] Getting list of reinsertion ready instructions from WIB
  97500: system.cpu.iew: [tid:0] There are 0 reinsertion ready instructions from WIB
  97500: system.cpu.iq: Attempting to schedule ready instructions from the IQ.
  97500: system.cpu.iq: Not able to schedule any instructions.
  97500: system.cpu.iew: Processing [tid:0]
  97500: system.cpu.iew: [tid:0], Dispatch dispatched 0 instructions.
  97500: system.cpu.iew: IQ has 64 free entries (Can schedule: 0).  LQ has 32 free entries. SQ has 32 free entries.
  98000: system.cpu.iew: Issue: Processing [tid:0]
  98000: system.cpu.iew: [tid:0] Not blocked, so attempting to run dispatch.
  98000: system.cpu.iew: [tid:0] Getting list of reinsertion ready instructions from WIB
  98000: system.cpu.iew: [tid:0] There are 0 reinsertion ready instructions from WIB
  98000: system.cpu.iq: Attempting to schedule ready instructions from the IQ.
  98000: system.cpu.iq: Not able to schedule any instructions.
  98000: system.cpu.iew: Processing [tid:0]
  98000: system.cpu.iew: [tid:0], Dispatch dispatched 0 instructions.
  98000: system.cpu.iew: IQ has 64 free entries (Can schedule: 0).  LQ has 32 free entries. SQ has 32 free entries.
  98500: system.cpu.iew: Issue: Processing [tid:0]
  98500: system.cpu.iew: [tid:0] Not blocked, so attempting to run dispatch.
  98500: system.cpu.iew: [tid:0] Getting list of reinsertion ready instructions from WIB
  98500: system.cpu.iew: [tid:0] There are 0 reinsertion ready instructions from WIB
  98500: system.cpu.iq: Attempting to schedule ready instructions from the IQ.
  98500: system.cpu.iq: Not able to schedule any instructions.
  98500: system.cpu.iew: Processing [tid:0]
  98500: system.cpu.iew: [tid:0], Dispatch dispatched 0 instructions.
  98500: system.cpu.iew: IQ has 64 free entries (Can schedule: 0).  LQ has 32 free entries. SQ has 32 free entries.
 161500: system.cpu.iew: Issue: Processing [tid:0]
 161500: system.cpu.iew: [tid:0] Not blocked, so attempting to run dispatch.
 161500: system.cpu.iew: [tid:0] Getting list of reinsertion ready instructions from WIB
 161500: system.cpu.iew: [tid:0] There are 0 reinsertion ready instructions from WIB
 161500: system.cpu.iq: Attempting to schedule ready instructions from the IQ.
 161500: system.cpu.iq: Not able to schedule any instructions.
 161500: system.cpu.iew: Processing [tid:0]
 161500: system.cpu.iew: [tid:0], Dispatch dispatched 0 instructions.
 161500: system.cpu.iew: IQ has 64 free entries (Can schedule: 0).  LQ has 32 free entries. SQ has 32 free entries.
 162000: system.cpu.iew: Issue: Processing [tid:0]
 162000: system.cpu.iew: [tid:0] Not blocked, so attempting to run dispatch.
 162000: system.cpu.iew: [tid:0] Getting list of reinsertion ready instructions from WIB
 162000: system.cpu.iew: [tid:0] There are 0 reinsertion ready instructions from WIB
 162000: system.cpu.iq: Attempting to schedule ready instructions from the IQ.
 162000: system.cpu.iq: Not able to schedule any instructions.
 162000: system.cpu.iew: Processing [tid:0]
 162000: system.cpu.iew: [tid:0], Dispatch dispatched 0 instructions.
 162000: system.cpu.iew: IQ has 64 free entries (Can schedule: 0).  LQ has 32 free entries. SQ has 32 free entries.
 162500: global: [sn:4] has 1 ready out of 1 sources. RTI 0)
 162500: global: [sn:5] has 1 ready out of 1 sources. RTI 0)
 162500: global: [sn:6] has 1 ready out of 1 sources. RTI 0)
 162500: system.cpu.iew: Issue: Processing [tid:0]
 162500: system.cpu.iew: [tid:0] Not blocked, so attempting to run dispatch.
 162500: system.cpu.iew: [tid:0] Getting list of reinsertion ready instructions from WIB
 162500: system.cpu.iew: [tid:0] There are 0 reinsertion ready instructions from WIB
 162500: system.cpu.iq: Attempting to schedule ready instructions from the IQ.
 162500: system.cpu.iq: Not able to schedule any instructions.
 162500: system.cpu.iew: Processing [tid:0]
 162500: system.cpu.iew: [tid:0], Dispatch dispatched 0 instructions.
 162500: system.cpu.iew: IQ has 64 free entries (Can schedule: 0).  LQ has 32 free entries. SQ has 32 free entries.
 163000: system.cpu.iew: Issue: Processing [tid:0]
 163000: system.cpu.iew: [tid:0] Not blocked, so attempting to run dispatch.
 163000: system.cpu.iew: [tid:0] Getting list of reinsertion ready instructions from WIB
 163000: system.cpu.iew: [tid:0] There are 0 reinsertion ready instructions from WIB
 163000: system.cpu.iq: Attempting to schedule ready instructions from the IQ.
 163000: system.cpu.iq: Not able to schedule any instructions.
 163000: system.cpu.iew: Processing [tid:0]
 163000: system.cpu.iew: [tid:0], Dispatch dispatched 0 instructions.
 163000: system.cpu.iew: IQ has 64 free entries (Can schedule: 0).  LQ has 32 free entries. SQ has 32 free entries.
 163000: system.cpu.rob: Adding inst PC (0x401f00=>0x401f04).(0=>1) to the ROB.
 163000: system.cpu.rob: [tid:0] Now has 1 instructions.
 163000: system.cpu.rob: Adding inst PC (0x401f04=>0x401f08).(0=>1) to the ROB.
 163000: system.cpu.rob: [tid:0] Now has 2 instructions.
 163000: system.cpu.rob: Adding inst PC (0x401f08=>0x401f0c).(0=>1) to the ROB.
 163000: system.cpu.rob: [tid:0] Now has 3 instructions.
 163000: system.cpu.rob: Adding inst PC (0x401f0c=>0x401f10).(0=>1) to the ROB.
 163000: system.cpu.rob: [tid:0] Now has 4 instructions.
 163000: system.cpu.rob: Adding inst PC (0x401f10=>0x401f14).(0=>1) to the ROB.
 163000: system.cpu.rob: [tid:0] Now has 5 instructions.
 163000: system.cpu.rob: Adding inst PC (0x401f14=>0x401f18).(0=>1) to the ROB.
 163000: system.cpu.rob: [tid:0] Now has 6 instructions.
 163000: system.cpu.rob: Adding inst PC (0x401f18=>0x401f1c).(0=>1) to the ROB.
 163000: system.cpu.rob: [tid:0] Now has 7 instructions.
 163000: system.cpu.rob: Adding inst PC (0x401f1c=>0x401f20).(0=>1) to the ROB.
 163000: system.cpu.rob: [tid:0] Now has 8 instructions.
 163000: system.cpu.rob: [tid:0] Checking if head is ready. ROB size=8
. HEAD SN=4 163000: system.cpu.rob: [tid:0] Reading Head Instr.
 163000: system.cpu.rob: [tid:0] Reading Head Instr.
 163500: system.cpu.iew: Issue: Processing [tid:0]
 163500: system.cpu.iew: [tid:0] Not blocked, so attempting to run dispatch.
 163500: system.cpu.iew: [tid:0] Getting list of reinsertion ready instructions from WIB
 163500: system.cpu.iew: [tid:0] There are 0 reinsertion ready instructions from WIB
 163500: system.cpu.iew: [tid:0] Issue: Adding PC (0x401f00=>0x401f04).(0=>1) [sn:4] [tid:0] to IQ.
 163500: system.cpu.iew: [tid:0] Issue: Memory instruction encountered, adding to LSQ.
 163500: system.cpu.iq: Adding instruction [sn:4] PC (0x401f00=>0x401f04).(0=>1) to the IQ.
 163500: system.cpu.iq: Instruction is ready to issue, putting it onto the ready list, PC (0x401f00=>0x401f04).(0=>1) opclass:47 [sn:4].
 163500: system.cpu.iew: [tid:0] Issue: Adding PC (0x401f04=>0x401f08).(0=>1) [sn:5] [tid:0] to IQ.
 163500: system.cpu.iq: Adding instruction [sn:5] PC (0x401f04=>0x401f08).(0=>1) to the IQ.
 163500: system.cpu.iq: Instruction is ready to issue, putting it onto the ready list, PC (0x401f04=>0x401f08).(0=>1) opclass:1 [sn:5].
 163500: system.cpu.iew: [tid:0] Issue: Adding PC (0x401f08=>0x401f0c).(0=>1) [sn:6] [tid:0] to IQ.
 163500: system.cpu.iq: Adding instruction [sn:6] PC (0x401f08=>0x401f0c).(0=>1) to the IQ.
 163500: system.cpu.iq: Instruction is ready to issue, putting it onto the ready list, PC (0x401f08=>0x401f0c).(0=>1) opclass:1 [sn:6].
 163500: system.cpu.iew: [tid:0] Issue: Adding PC (0x401f0c=>0x401f10).(0=>1) [sn:7] [tid:0] to IQ.
 163500: system.cpu.iq: Adding instruction [sn:7] PC (0x401f0c=>0x401f10).(0=>1) to the IQ.
 163500: system.cpu.iq: Instruction is ready to issue, putting it onto the ready list, PC (0x401f0c=>0x401f10).(0=>1) opclass:1 [sn:7].
 163500: system.cpu.iew: [tid:0] Issue: Adding PC (0x401f10=>0x401f14).(0=>1) [sn:8] [tid:0] to IQ.
 163500: system.cpu.iq: Adding instruction [sn:8] PC (0x401f10=>0x401f14).(0=>1) to the IQ.
 163500: system.cpu.iq: Instruction PC (0x401f10=>0x401f14).(0=>1) has src reg 48 (IntRegClass) that is being added to the dependency chain.
 163500: system.cpu.iew: [tid:0] Issue: Adding PC (0x401f14=>0x401f18).(0=>1) [sn:9] [tid:0] to IQ.
 163500: system.cpu.iq: Adding instruction [sn:9] PC (0x401f14=>0x401f18).(0=>1) to the IQ.
 163500: system.cpu.iq: Instruction PC (0x401f14=>0x401f18).(0=>1) has src reg 49 (IntRegClass) that is being added to the dependency chain.
 163500: system.cpu.iew: [tid:0] Issue: Adding PC (0x401f18=>0x401f1c).(0=>1) [sn:10] [tid:0] to IQ.
 163500: system.cpu.iq: Adding instruction [sn:10] PC (0x401f18=>0x401f1c).(0=>1) to the IQ.
 163500: system.cpu.iq: Instruction PC (0x401f18=>0x401f1c).(0=>1) has src reg 50 (IntRegClass) that is being added to the dependency chain.
 163500: system.cpu.iew: [tid:0] Issue: Adding PC (0x401f1c=>0x401f20).(0=>1) [sn:11] [tid:0] to IQ.
 163500: system.cpu.iq: Adding instruction [sn:11] PC (0x401f1c=>0x401f20).(0=>1) to the IQ.
 163500: system.cpu.iq: Instruction is ready to issue, putting it onto the ready list, PC (0x401f1c=>0x401f20).(0=>1) opclass:1 [sn:11].
 163500: system.cpu.iq: Attempting to schedule ready instructions from the IQ.
 163500: system.cpu.iq: Thread 0: Issuing instruction PC (0x401f00=>0x401f04).(0=>1) [sn:4]
 163500: system.cpu.iq: Thread 0: Issuing instruction PC (0x401f04=>0x401f08).(0=>1) [sn:5]
 163500: system.cpu.iq: Thread 0: Issuing instruction PC (0x401f08=>0x401f0c).(0=>1) [sn:6]
 163500: system.cpu.iq: Thread 0: Issuing instruction PC (0x401f0c=>0x401f10).(0=>1) [sn:7]
 163500: system.cpu.iq: Thread 0: Issuing instruction PC (0x401f1c=>0x401f20).(0=>1) [sn:11]
 163500: system.cpu.iew: Processing [tid:0]
 163500: system.cpu.iew: [tid:0], Dispatch dispatched 8 instructions.
 163500: system.cpu.iew: IQ has 60 free entries (Can schedule: 0).  LQ has 31 free entries. SQ has 32 free entries.
 163500: system.cpu.rob: Adding inst PC (0x401f20=>0x401f24).(0=>1) to the ROB.
 163500: system.cpu.rob: [tid:0] Now has 9 instructions.
 163500: system.cpu.rob: Adding inst PC (0x401f24=>0x401f28).(0=>1) to the ROB.
 163500: system.cpu.rob: [tid:0] Now has 10 instructions.
 163500: system.cpu.rob: Adding inst PC (0x401f28=>0x401f2c).(0=>1) to the ROB.
 163500: system.cpu.rob: [tid:0] Now has 11 instructions.
 163500: system.cpu.rob: Adding inst PC (0x401f2c=>0x401f30).(0=>1) to the ROB.
 163500: system.cpu.rob: [tid:0] Now has 12 instructions.
 163500: system.cpu.rob: Adding inst PC (0x401f30=>0x401f34).(0=>1) to the ROB.
 163500: system.cpu.rob: [tid:0] Now has 13 instructions.
 163500: system.cpu.rob: Adding inst PC (0x401f34=>0x401f38).(0=>1) to the ROB.
 163500: system.cpu.rob: [tid:0] Now has 14 instructions.
 163500: system.cpu.rob: Adding inst PC (0x401f38=>0x401f3c).(0=>1) to the ROB.
 163500: system.cpu.rob: [tid:0] Now has 15 instructions.
 163500: system.cpu.rob: Adding inst PC (0x401f3c=>0x401f40).(0=>1) to the ROB.
 163500: system.cpu.rob: [tid:0] Now has 16 instructions.
 163500: system.cpu.rob: [tid:0] Checking if head is ready. ROB size=16
. HEAD SN=4 163500: system.cpu.rob: [tid:0] Reading Head Instr.
 163500: system.cpu.rob: [tid:0] Reading Head Instr.
 164000: system.cpu.iew: Issue: Processing [tid:0]
 164000: system.cpu.iew: [tid:0] Not blocked, so attempting to run dispatch.
 164000: system.cpu.iew: [tid:0] Getting list of reinsertion ready instructions from WIB
 164000: system.cpu.iew: [tid:0] There are 0 reinsertion ready instructions from WIB
 164000: system.cpu.iew: [tid:0] Issue: Adding PC (0x401f20=>0x401f24).(0=>1) [sn:12] [tid:0] to IQ.
 164000: system.cpu.iq: Adding instruction [sn:12] PC (0x401f20=>0x401f24).(0=>1) to the IQ.
 164000: system.cpu.iq: Instruction PC (0x401f20=>0x401f24).(0=>1) has src reg 52 (IntRegClass) that is being added to the dependency chain.
 164000: system.cpu.iew: [tid:0] Issue: Adding PC (0x401f24=>0x401f28).(0=>1) [sn:13] [tid:0] to IQ.
 164000: system.cpu.iq: Adding instruction [sn:13] PC (0x401f24=>0x401f28).(0=>1) to the IQ.
 164000: system.cpu.iq: Instruction PC (0x401f24=>0x401f28).(0=>1) has src reg 53 (IntRegClass) that is being added to the dependency chain.
 164000: system.cpu.iew: [tid:0] Issue: Adding PC (0x401f28=>0x401f2c).(0=>1) [sn:14] [tid:0] to IQ.
 164000: system.cpu.iq: Adding instruction [sn:14] PC (0x401f28=>0x401f2c).(0=>1) to the IQ.
 164000: system.cpu.iq: Instruction PC (0x401f28=>0x401f2c).(0=>1) has src reg 54 (IntRegClass) that is being added to the dependency chain.
 164000: system.cpu.iew: [tid:0] Issue: Adding PC (0x401f2c=>0x401f30).(0=>1) [sn:15] [tid:0] to IQ.
 164000: system.cpu.iq: Adding instruction [sn:15] PC (0x401f2c=>0x401f30).(0=>1) to the IQ.
 164000: system.cpu.iq: Instruction is ready to issue, putting it onto the ready list, PC (0x401f2c=>0x401f30).(0=>1) opclass:1 [sn:15].
 164000: system.cpu.iew: [tid:0] Issue: Adding PC (0x401f30=>0x401f34).(0=>1) [sn:16] [tid:0] to IQ.
 164000: system.cpu.iq: Adding instruction [sn:16] PC (0x401f30=>0x401f34).(0=>1) to the IQ.
 164000: system.cpu.iq: Instruction PC (0x401f30=>0x401f34).(0=>1) has src reg 56 (IntRegClass) that is being added to the dependency chain.
 164000: system.cpu.iew: [tid:0] Issue: Adding PC (0x401f34=>0x401f38).(0=>1) [sn:17] [tid:0] to IQ.
 164000: system.cpu.iq: Adding instruction [sn:17] PC (0x401f34=>0x401f38).(0=>1) to the IQ.
 164000: system.cpu.iq: Instruction PC (0x401f34=>0x401f38).(0=>1) has src reg 57 (IntRegClass) that is being added to the dependency chain.
 164000: system.cpu.iew: [tid:0] Issue: Adding PC (0x401f38=>0x401f3c).(0=>1) [sn:18] [tid:0] to IQ.
 164000: system.cpu.iq: Adding instruction [sn:18] PC (0x401f38=>0x401f3c).(0=>1) to the IQ.
 164000: system.cpu.iq: Instruction PC (0x401f38=>0x401f3c).(0=>1) has src reg 58 (IntRegClass) that is being added to the dependency chain.
 164000: system.cpu.iew: [tid:0] Issue: Adding PC (0x401f3c=>0x401f40).(0=>1) [sn:19] [tid:0] to IQ.
 164000: system.cpu.iq: Adding instruction [sn:19] PC (0x401f3c=>0x401f40).(0=>1) to the IQ.
 164000: system.cpu.iq: Instruction is ready to issue, putting it onto the ready list, PC (0x401f3c=>0x401f40).(0=>1) opclass:1 [sn:19].
 164000: system.cpu.iew: Execute: Executing instructions from IQ.
 164000: system.cpu.iew: Execute: Processing PC (0x401f00=>0x401f04).(0=>1), [tid:0] [sn:4].
 164000: system.cpu.iew: Execute: Calculating address for memory reference.
 164000: global: RegFile: Access to int register 38, has data 0x7ffffefda0
 164000: system.cpu.rob: [tid:0] Assigned Load Vector Pointer: 0
 164000: system.cpu.iew: Execute: Executing instructions from IQ.
 164000: system.cpu.iew: Execute: Processing PC (0x401f04=>0x401f08).(0=>1), [tid:0] [sn:5].
 164000: global: RegFile: Access to int register 38, has data 0x7ffffefda0
 164000: global: RegFile: Setting int register 46 to 0x7ffffefda8
 164000: system.cpu.iew: Current wb cycle: 0, width: 8, numInst: 0
wbActual:0
 164000: system.cpu.iew: Execute: Executing instructions from IQ.
 164000: system.cpu.iew: Execute: Processing PC (0x401f08=>0x401f0c).(0=>1), [tid:0] [sn:6].
 164000: global: RegFile: Access to int register 38, has data 0x7ffffefda0
 164000: global: RegFile: Setting int register 47 to 0x7ffffefda0
 164000: system.cpu.iew: Current wb cycle: 0, width: 8, numInst: 1
wbActual:1
 164000: system.cpu.iew: Execute: Executing instructions from IQ.
 164000: system.cpu.iew: Execute: Processing PC (0x401f0c=>0x401f10).(0=>1), [tid:0] [sn:7].
 164000: global: RegFile: Setting int register 48 to 0
 164000: system.cpu.iew: Current wb cycle: 0, width: 8, numInst: 2
wbActual:2
 164000: system.cpu.iew: Execute: Executing instructions from IQ.
 164000: system.cpu.iew: Execute: Processing PC (0x401f1c=>0x401f20).(0=>1), [tid:0] [sn:11].
 164000: global: RegFile: Setting int register 52 to 0
 164000: system.cpu.iew: Current wb cycle: 0, width: 8, numInst: 3
wbActual:3
 164000: system.cpu.iew: Sending instructions to commit, [sn:5] PC (0x401f04=>0x401f08).(0=>1).
 164000: system.cpu.iq: Waking dependents of completed instruction.
 164000: system.cpu.iq: Waking any dependents on register 46 (IntRegClass).
 164000: system.cpu.iew: Setting Destination Register 46 (IntRegClass)
 164000: system.cpu.iew: Sending instructions to commit, [sn:6] PC (0x401f08=>0x401f0c).(0=>1).
 164000: system.cpu.iq: Waking dependents of completed instruction.
 164000: system.cpu.iq: Waking any dependents on register 47 (IntRegClass).
 164000: system.cpu.iew: Setting Destination Register 47 (IntRegClass)
 164000: system.cpu.iew: Sending instructions to commit, [sn:7] PC (0x401f0c=>0x401f10).(0=>1).
 164000: system.cpu.iq: Waking dependents of completed instruction.
 164000: system.cpu.iq: Waking any dependents on register 48 (IntRegClass).
 164000: system.cpu.iq: Waking up a dependent instruction, [sn:8] PC (0x401f10=>0x401f14).(0=>1).
 164000: global: [sn:8] has 1 ready out of 1 sources. RTI 0)
 164000: system.cpu.iq: Instruction is ready to issue, putting it onto the ready list, PC (0x401f10=>0x401f14).(0=>1) opclass:1 [sn:8].
 164000: system.cpu.iew: Setting Destination Register 48 (IntRegClass)
 164000: system.cpu.iew: Sending instructions to commit, [sn:11] PC (0x401f1c=>0x401f20).(0=>1).
 164000: system.cpu.iq: Waking dependents of completed instruction.
 164000: system.cpu.iq: Waking any dependents on register 52 (IntRegClass).
 164000: system.cpu.iq: Waking up a dependent instruction, [sn:12] PC (0x401f20=>0x401f24).(0=>1).
 164000: global: [sn:12] has 1 ready out of 1 sources. RTI 0)
 164000: system.cpu.iq: Instruction is ready to issue, putting it onto the ready list, PC (0x401f20=>0x401f24).(0=>1) opclass:1 [sn:12].
 164000: system.cpu.iew: Setting Destination Register 52 (IntRegClass)
 164000: system.cpu.iq: Attempting to schedule ready instructions from the IQ.
 164000: system.cpu.iq: Thread 0: Issuing instruction PC (0x401f10=>0x401f14).(0=>1) [sn:8]
 164000: system.cpu.iq: Thread 0: Issuing instruction PC (0x401f20=>0x401f24).(0=>1) [sn:12]
 164000: system.cpu.iq: Thread 0: Issuing instruction PC (0x401f2c=>0x401f30).(0=>1) [sn:15]
 164000: system.cpu.iq: Thread 0: Issuing instruction PC (0x401f3c=>0x401f40).(0=>1) [sn:19]
 164000: system.cpu.iew: Processing [tid:0]
 164000: system.cpu.iew: [tid:0], Dispatch dispatched 8 instructions.
 164000: system.cpu.iew: IQ has 56 free entries (Can schedule: 0).  LQ has 31 free entries. SQ has 32 free entries.
 164000: system.cpu.rob: [tid:0] Checking if head is ready. ROB size=16
. HEAD SN=4 164000: system.cpu.rob: [tid:0] Reading Head Instr.
 164000: system.cpu.rob: [tid:0] Reading Head Instr.
 164500: system.cpu.iew: Issue: Processing [tid:0]
 164500: system.cpu.iew: [tid:0] Not blocked, so attempting to run dispatch.
 164500: system.cpu.iew: [tid:0] Getting list of reinsertion ready instructions from WIB
 164500: system.cpu.iew: [tid:0] There are 0 reinsertion ready instructions from WIB
 164500: system.cpu.iew: Execute: Executing instructions from IQ.
 164500: system.cpu.iew: Execute: Processing PC (0x401f10=>0x401f14).(0=>1), [tid:0] [sn:8].
 164500: global: RegFile: Access to int register 48, has data 0
 164500: global: RegFile: Setting int register 49 to 0
 164500: system.cpu.iew: Current wb cycle: 0, width: 8, numInst: 0
wbActual:0
 164500: system.cpu.iew: Execute: Executing instructions from IQ.
 164500: system.cpu.iew: Execute: Processing PC (0x401f20=>0x401f24).(0=>1), [tid:0] [sn:12].
 164500: global: RegFile: Access to int register 52, has data 0
 164500: global: RegFile: Setting int register 53 to 0
 164500: system.cpu.iew: Current wb cycle: 0, width: 8, numInst: 1
wbActual:1
 164500: system.cpu.iew: Execute: Executing instructions from IQ.
 164500: system.cpu.iew: Execute: Processing PC (0x401f2c=>0x401f30).(0=>1), [tid:0] [sn:15].
 164500: global: RegFile: Setting int register 56 to 0
 164500: system.cpu.iew: Current wb cycle: 0, width: 8, numInst: 2
wbActual:2
 164500: system.cpu.iew: Execute: Executing instructions from IQ.
 164500: system.cpu.iew: Execute: Processing PC (0x401f3c=>0x401f40).(0=>1), [tid:0] [sn:19].
 164500: global: RegFile: Setting int register 60 to 0x401f40
 164500: system.cpu.iew: Current wb cycle: 0, width: 8, numInst: 3
wbActual:3
 164500: system.cpu.iew: Sending instructions to commit, [sn:8] PC (0x401f10=>0x401f14).(0=>1).
 164500: system.cpu.iq: Waking dependents of completed instruction.
 164500: system.cpu.iq: Waking any dependents on register 49 (IntRegClass).
 164500: system.cpu.iq: Waking up a dependent instruction, [sn:9] PC (0x401f14=>0x401f18).(0=>1).
 164500: global: [sn:9] has 1 ready out of 1 sources. RTI 0)
 164500: system.cpu.iq: Instruction is ready to issue, putting it onto the ready list, PC (0x401f14=>0x401f18).(0=>1) opclass:1 [sn:9].
 164500: system.cpu.iew: Setting Destination Register 49 (IntRegClass)
 164500: system.cpu.iew: Sending instructions to commit, [sn:12] PC (0x401f20=>0x401f24).(0=>1).
 164500: system.cpu.iq: Waking dependents of completed instruction.
 164500: system.cpu.iq: Waking any dependents on register 53 (IntRegClass).
 164500: system.cpu.iq: Waking up a dependent instruction, [sn:13] PC (0x401f24=>0x401f28).(0=>1).
 164500: global: [sn:13] has 1 ready out of 1 sources. RTI 0)
 164500: system.cpu.iq: Instruction is ready to issue, putting it onto the ready list, PC (0x401f24=>0x401f28).(0=>1) opclass:1 [sn:13].
 164500: system.cpu.iew: Setting Destination Register 53 (IntRegClass)
 164500: system.cpu.iew: Sending instructions to commit, [sn:15] PC (0x401f2c=>0x401f30).(0=>1).
 164500: system.cpu.iq: Waking dependents of completed instruction.
 164500: system.cpu.iq: Waking any dependents on register 56 (IntRegClass).
 164500: system.cpu.iq: Waking up a dependent instruction, [sn:16] PC (0x401f30=>0x401f34).(0=>1).
 164500: global: [sn:16] has 1 ready out of 1 sources. RTI 0)
 164500: system.cpu.iq: Instruction is ready to issue, putting it onto the ready list, PC (0x401f30=>0x401f34).(0=>1) opclass:1 [sn:16].
 164500: system.cpu.iew: Setting Destination Register 56 (IntRegClass)
 164500: system.cpu.iew: Sending instructions to commit, [sn:19] PC (0x401f3c=>0x418500).(0=>1).
 164500: system.cpu.iq: Waking dependents of completed instruction.
 164500: system.cpu.iq: Waking any dependents on register 60 (IntRegClass).
 164500: system.cpu.iew: Setting Destination Register 60 (IntRegClass)
 164500: system.cpu.iq: Attempting to schedule ready instructions from the IQ.
 164500: system.cpu.iq: Thread 0: Issuing instruction PC (0x401f14=>0x401f18).(0=>1) [sn:9]
 164500: system.cpu.iq: Thread 0: Issuing instruction PC (0x401f24=>0x401f28).(0=>1) [sn:13]
 164500: system.cpu.iq: Thread 0: Issuing instruction PC (0x401f30=>0x401f34).(0=>1) [sn:16]
 164500: system.cpu.iew: Processing [tid:0]
 164500: system.cpu.iew: [tid:0], Dispatch dispatched 0 instructions.
 164500: system.cpu.iew: IQ has 59 free entries (Can schedule: 0).  LQ has 31 free entries. SQ has 32 free entries.
 164500: system.cpu.rob: [tid:0] Checking if head is ready. ROB size=16
. HEAD SN=4 164500: system.cpu.rob: [tid:0] Reading Head Instr.
 164500: system.cpu.rob: [tid:0] Reading Head Instr.
 165000: system.cpu.iew: Issue: Processing [tid:0]
 165000: system.cpu.iew: [tid:0] Not blocked, so attempting to run dispatch.
 165000: system.cpu.iew: [tid:0] Getting list of reinsertion ready instructions from WIB
 165000: system.cpu.iew: [tid:0] There are 0 reinsertion ready instructions from WIB
 165000: system.cpu.iew: Execute: Executing instructions from IQ.
 165000: system.cpu.iew: Execute: Processing PC (0x401f14=>0x401f18).(0=>1), [tid:0] [sn:9].
 165000: global: RegFile: Access to int register 49, has data 0
 165000: global: RegFile: Setting int register 50 to 0x400000
 165000: system.cpu.iew: Current wb cycle: 0, width: 8, numInst: 0
wbActual:0
 165000: system.cpu.iew: Execute: Executing instructions from IQ.
 165000: system.cpu.iew: Execute: Processing PC (0x401f24=>0x401f28).(0=>1), [tid:0] [sn:13].
 165000: global: RegFile: Access to int register 53, has data 0
 165000: global: RegFile: Setting int register 54 to 0x410000
 165000: system.cpu.iew: Current wb cycle: 0, width: 8, numInst: 1
wbActual:1
 165000: system.cpu.iew: Execute: Executing instructions from IQ.
 165000: system.cpu.iew: Execute: Processing PC (0x401f30=>0x401f34).(0=>1), [tid:0] [sn:16].
 165000: global: RegFile: Access to int register 56, has data 0
 165000: global: RegFile: Setting int register 57 to 0
 165000: system.cpu.iew: Current wb cycle: 0, width: 8, numInst: 2
wbActual:2
 165000: system.cpu.iew: Sending instructions to commit, [sn:9] PC (0x401f14=>0x401f18).(0=>1).
 165000: system.cpu.iq: Waking dependents of completed instruction.
 165000: system.cpu.iq: Waking any dependents on register 50 (IntRegClass).
 165000: system.cpu.iq: Waking up a dependent instruction, [sn:10] PC (0x401f18=>0x401f1c).(0=>1).
 165000: global: [sn:10] has 1 ready out of 1 sources. RTI 0)
 165000: system.cpu.iq: Instruction is ready to issue, putting it onto the ready list, PC (0x401f18=>0x401f1c).(0=>1) opclass:1 [sn:10].
 165000: system.cpu.iew: Setting Destination Register 50 (IntRegClass)
 165000: system.cpu.iew: Sending instructions to commit, [sn:13] PC (0x401f24=>0x401f28).(0=>1).
 165000: system.cpu.iq: Waking dependents of completed instruction.
 165000: system.cpu.iq: Waking any dependents on register 54 (IntRegClass).
 165000: system.cpu.iq: Waking up a dependent instruction, [sn:14] PC (0x401f28=>0x401f2c).(0=>1).
 165000: global: [sn:14] has 1 ready out of 1 sources. RTI 0)
 165000: system.cpu.iq: Instruction is ready to issue, putting it onto the ready list, PC (0x401f28=>0x401f2c).(0=>1) opclass:1 [sn:14].
 165000: system.cpu.iew: Setting Destination Register 54 (IntRegClass)
 165000: system.cpu.iew: Sending instructions to commit, [sn:16] PC (0x401f30=>0x401f34).(0=>1).
 165000: system.cpu.iq: Waking dependents of completed instruction.
 165000: system.cpu.iq: Waking any dependents on register 57 (IntRegClass).
 165000: system.cpu.iq: Waking up a dependent instruction, [sn:17] PC (0x401f34=>0x401f38).(0=>1).
 165000: global: [sn:17] has 1 ready out of 1 sources. RTI 0)
 165000: system.cpu.iq: Instruction is ready to issue, putting it onto the ready list, PC (0x401f34=>0x401f38).(0=>1) opclass:1 [sn:17].
 165000: system.cpu.iew: Setting Destination Register 57 (IntRegClass)
 165000: system.cpu.iq: Attempting to schedule ready instructions from the IQ.
 165000: system.cpu.iq: Thread 0: Issuing instruction PC (0x401f18=>0x401f1c).(0=>1) [sn:10]
 165000: system.cpu.iq: Thread 0: Issuing instruction PC (0x401f28=>0x401f2c).(0=>1) [sn:14]
 165000: system.cpu.iq: Thread 0: Issuing instruction PC (0x401f34=>0x401f38).(0=>1) [sn:17]
 165000: system.cpu.iew: Processing [tid:0]
 165000: system.cpu.iew: [tid:0], Dispatch dispatched 0 instructions.
 165000: system.cpu.iew: IQ has 62 free entries (Can schedule: 0).  LQ has 31 free entries. SQ has 32 free entries.
 165000: system.cpu.rob: [tid:0] Checking if head is ready. ROB size=16
. HEAD SN=4 165000: system.cpu.rob: [tid:0] Reading Head Instr.
 165000: system.cpu.rob: [tid:0] Reading Head Instr.
 165500: system.cpu.iew: Issue: Processing [tid:0]
 165500: system.cpu.iew: [tid:0] Not blocked, so attempting to run dispatch.
 165500: system.cpu.iew: [tid:0] Getting list of reinsertion ready instructions from WIB
 165500: system.cpu.iew: [tid:0] There are 0 reinsertion ready instructions from WIB
 165500: system.cpu.iew: Execute: Executing instructions from IQ.
 165500: system.cpu.iew: Execute: Processing PC (0x401f18=>0x401f1c).(0=>1), [tid:0] [sn:10].
 165500: global: RegFile: Access to int register 50, has data 0x400000
 165500: global: RegFile: Setting int register 51 to 0x400500
 165500: system.cpu.iew: Current wb cycle: 0, width: 8, numInst: 0
wbActual:0
 165500: system.cpu.iew: Execute: Executing instructions from IQ.
 165500: system.cpu.iew: Execute: Processing PC (0x401f28=>0x401f2c).(0=>1), [tid:0] [sn:14].
 165500: global: RegFile: Access to int register 54, has data 0x410000
 165500: global: RegFile: Setting int register 55 to 0x418be0
 165500: system.cpu.iew: Current wb cycle: 0, width: 8, numInst: 1
wbActual:1
 165500: system.cpu.iew: Execute: Executing instructions from IQ.
 165500: system.cpu.iew: Execute: Processing PC (0x401f34=>0x401f38).(0=>1), [tid:0] [sn:17].
 165500: global: RegFile: Access to int register 57, has data 0
 165500: global: RegFile: Setting int register 58 to 0x410000
 165500: system.cpu.iew: Current wb cycle: 0, width: 8, numInst: 2
wbActual:2
 165500: system.cpu.iew: Sending instructions to commit, [sn:10] PC (0x401f18=>0x401f1c).(0=>1).
 165500: system.cpu.iq: Waking dependents of completed instruction.
 165500: system.cpu.iq: Waking any dependents on register 51 (IntRegClass).
 165500: system.cpu.iew: Setting Destination Register 51 (IntRegClass)
 165500: system.cpu.iew: Sending instructions to commit, [sn:14] PC (0x401f28=>0x401f2c).(0=>1).
 165500: system.cpu.iq: Waking dependents of completed instruction.
 165500: system.cpu.iq: Waking any dependents on register 55 (IntRegClass).
 165500: system.cpu.iew: Setting Destination Register 55 (IntRegClass)
 165500: system.cpu.iew: Sending instructions to commit, [sn:17] PC (0x401f34=>0x401f38).(0=>1).
 165500: system.cpu.iq: Waking dependents of completed instruction.
 165500: system.cpu.iq: Waking any dependents on register 58 (IntRegClass).
 165500: system.cpu.iq: Waking up a dependent instruction, [sn:18] PC (0x401f38=>0x401f3c).(0=>1).
 165500: global: [sn:18] has 1 ready out of 1 sources. RTI 0)
 165500: system.cpu.iq: Instruction is ready to issue, putting it onto the ready list, PC (0x401f38=>0x401f3c).(0=>1) opclass:1 [sn:18].
 165500: system.cpu.iew: Setting Destination Register 58 (IntRegClass)
 165500: system.cpu.iq: Attempting to schedule ready instructions from the IQ.
 165500: system.cpu.iq: Thread 0: Issuing instruction PC (0x401f38=>0x401f3c).(0=>1) [sn:18]
 165500: system.cpu.iew: Processing [tid:0]
 165500: system.cpu.iew: [tid:0], Dispatch dispatched 0 instructions.
 165500: system.cpu.iew: IQ has 63 free entries (Can schedule: 0).  LQ has 31 free entries. SQ has 32 free entries.
 165500: system.cpu.rob: [tid:0] Checking if head is ready. ROB size=16
. HEAD SN=4 165500: system.cpu.rob: [tid:0] Reading Head Instr.
 165500: system.cpu.rob: [tid:0] Reading Head Instr.
 166000: system.cpu.iew: Issue: Processing [tid:0]
 166000: system.cpu.iew: [tid:0] Not blocked, so attempting to run dispatch.
 166000: system.cpu.iew: [tid:0] Getting list of reinsertion ready instructions from WIB
 166000: system.cpu.iew: [tid:0] There are 0 reinsertion ready instructions from WIB
 166000: system.cpu.iew: Execute: Executing instructions from IQ.
 166000: system.cpu.iew: Execute: Processing PC (0x401f38=>0x401f3c).(0=>1), [tid:0] [sn:18].
 166000: global: RegFile: Access to int register 58, has data 0x410000
 166000: global: RegFile: Setting int register 59 to 0x418ca8
 166000: system.cpu.iew: Current wb cycle: 0, width: 8, numInst: 0
wbActual:0
 166000: system.cpu.iew: Sending instructions to commit, [sn:18] PC (0x401f38=>0x401f3c).(0=>1).
 166000: system.cpu.iq: Waking dependents of completed instruction.
 166000: system.cpu.iq: Waking any dependents on register 59 (IntRegClass).
 166000: system.cpu.iew: Setting Destination Register 59 (IntRegClass)
 166000: system.cpu.iq: Attempting to schedule ready instructions from the IQ.
 166000: system.cpu.iq: Not able to schedule any instructions.
 166000: system.cpu.iew: Processing [tid:0]
 166000: system.cpu.iew: [tid:0], Dispatch dispatched 0 instructions.
 166000: system.cpu.iew: IQ has 63 free entries (Can schedule: 0).  LQ has 31 free entries. SQ has 32 free entries.
 166000: system.cpu.rob: [tid:0] Checking if head is ready. ROB size=16
. HEAD SN=4 166000: system.cpu.rob: [tid:0] Reading Head Instr.
 166000: system.cpu.rob: [tid:0] Reading Head Instr.
 166500: system.cpu.iew: Issue: Processing [tid:0]
 166500: system.cpu.iew: [tid:0] Not blocked, so attempting to run dispatch.
 166500: system.cpu.iew: [tid:0] Getting list of reinsertion ready instructions from WIB
 166500: system.cpu.iew: [tid:0] There are 0 reinsertion ready instructions from WIB
 166500: system.cpu.iq: Attempting to schedule ready instructions from the IQ.
 166500: system.cpu.iq: Not able to schedule any instructions.
 166500: system.cpu.iew: Processing [tid:0]
 166500: system.cpu.iew: [tid:0], Dispatch dispatched 0 instructions.
 166500: system.cpu.iew: IQ has 63 free entries (Can schedule: 0).  LQ has 31 free entries. SQ has 32 free entries.
 166500: system.cpu.rob: [tid:0] Checking if head is ready. ROB size=16
. HEAD SN=4 166500: system.cpu.rob: [tid:0] Reading Head Instr.
 166500: system.cpu.rob: [tid:0] Reading Head Instr.
 167000: system.cpu.iew: Issue: Processing [tid:0]
 167000: system.cpu.iew: [tid:0] Not blocked, so attempting to run dispatch.
 167000: system.cpu.iew: [tid:0] Getting list of reinsertion ready instructions from WIB
 167000: system.cpu.iew: [tid:0] There are 0 reinsertion ready instructions from WIB
 167000: system.cpu.iq: Attempting to schedule ready instructions from the IQ.
 167000: system.cpu.iq: Not able to schedule any instructions.
 167000: system.cpu.iew: Processing [tid:0]
 167000: system.cpu.iew: [tid:0], Dispatch dispatched 0 instructions.
 167000: system.cpu.iew: IQ has 63 free entries (Can schedule: 0).  LQ has 31 free entries. SQ has 32 free entries.
 167000: system.cpu.rob: [tid:0] Checking if head is ready. ROB size=16
. HEAD SN=4 167000: system.cpu.rob: [tid:0] Reading Head Instr.
 167000: system.cpu.rob: [tid:0] Reading Head Instr.
 167500: system.cpu.iew: Issue: Processing [tid:0]
 167500: system.cpu.iew: [tid:0] Not blocked, so attempting to run dispatch.
 167500: system.cpu.iew: [tid:0] Getting list of reinsertion ready instructions from WIB
 167500: system.cpu.iew: [tid:0] There are 0 reinsertion ready instructions from WIB
 167500: system.cpu.iq: Attempting to schedule ready instructions from the IQ.
 167500: system.cpu.iq: Not able to schedule any instructions.
 167500: system.cpu.iew: Processing [tid:0]
 167500: system.cpu.iew: [tid:0], Dispatch dispatched 0 instructions.
 167500: system.cpu.iew: IQ has 63 free entries (Can schedule: 0).  LQ has 31 free entries. SQ has 32 free entries.
 167500: system.cpu.rob: [tid:0] Checking if head is ready. ROB size=16
. HEAD SN=4 167500: system.cpu.rob: [tid:0] Reading Head Instr.
 167500: system.cpu.rob: [tid:0] Reading Head Instr.
 168000: system.cpu.iew: Issue: Processing [tid:0]
 168000: system.cpu.iew: [tid:0] Not blocked, so attempting to run dispatch.
 168000: system.cpu.iew: [tid:0] Getting list of reinsertion ready instructions from WIB
 168000: system.cpu.iew: [tid:0] There are 0 reinsertion ready instructions from WIB
 168000: system.cpu.iq: Attempting to schedule ready instructions from the IQ.
 168000: system.cpu.iq: Not able to schedule any instructions.
 168000: system.cpu.iew: Processing [tid:0]
 168000: system.cpu.iew: [tid:0], Dispatch dispatched 0 instructions.
 168000: system.cpu.iew: IQ has 63 free entries (Can schedule: 0).  LQ has 31 free entries. SQ has 32 free entries.
 168000: system.cpu.rob: [tid:0] Checking if head is ready. ROB size=16
. HEAD SN=4 168000: system.cpu.rob: [tid:0] Reading Head Instr.
 168000: system.cpu.rob: [tid:0] Reading Head Instr.
 168500: system.cpu.iew: Issue: Processing [tid:0]
 168500: system.cpu.iew: [tid:0] Not blocked, so attempting to run dispatch.
 168500: system.cpu.iew: [tid:0] Getting list of reinsertion ready instructions from WIB
 168500: system.cpu.iew: [tid:0] There are 0 reinsertion ready instructions from WIB
 168500: system.cpu.iq: Attempting to schedule ready instructions from the IQ.
 168500: system.cpu.iq: Not able to schedule any instructions.
 168500: system.cpu.iew: Processing [tid:0]
 168500: system.cpu.iew: [tid:0], Dispatch dispatched 0 instructions.
 168500: system.cpu.iew: IQ has 63 free entries (Can schedule: 0).  LQ has 31 free entries. SQ has 32 free entries.
 168500: system.cpu.rob: [tid:0] Checking if head is ready. ROB size=16
. HEAD SN=4 168500: system.cpu.rob: [tid:0] Reading Head Instr.
 168500: system.cpu.rob: [tid:0] Reading Head Instr.
 169000: system.cpu.iew: Issue: Processing [tid:0]
 169000: system.cpu.iew: [tid:0] Not blocked, so attempting to run dispatch.
 169000: system.cpu.iew: [tid:0] Getting list of reinsertion ready instructions from WIB
 169000: system.cpu.iew: [tid:0] There are 0 reinsertion ready instructions from WIB
 169000: system.cpu.iq: Attempting to schedule ready instructions from the IQ.
 169000: system.cpu.iq: Not able to schedule any instructions.
 169000: system.cpu.iew: Processing [tid:0]
 169000: system.cpu.iew: [tid:0], Dispatch dispatched 0 instructions.
 169000: system.cpu.iew: IQ has 63 free entries (Can schedule: 0).  LQ has 31 free entries. SQ has 32 free entries.
 169000: system.cpu.rob: [tid:0] Checking if head is ready. ROB size=16
. HEAD SN=4 169000: system.cpu.rob: [tid:0] Reading Head Instr.
 169000: system.cpu.rob: [tid:0] Reading Head Instr.
 169500: system.cpu.iew: Issue: Processing [tid:0]
 169500: system.cpu.iew: [tid:0] Not blocked, so attempting to run dispatch.
 169500: system.cpu.iew: [tid:0] Getting list of reinsertion ready instructions from WIB
 169500: system.cpu.iew: [tid:0] There are 0 reinsertion ready instructions from WIB
 169500: system.cpu.iq: Attempting to schedule ready instructions from the IQ.
 169500: system.cpu.iq: Not able to schedule any instructions.
 169500: system.cpu.iew: Processing [tid:0]
 169500: system.cpu.iew: [tid:0], Dispatch dispatched 0 instructions.
 169500: system.cpu.iew: IQ has 63 free entries (Can schedule: 0).  LQ has 31 free entries. SQ has 32 free entries.
 169500: system.cpu.rob: [tid:0] Checking if head is ready. ROB size=16
. HEAD SN=4 169500: system.cpu.rob: [tid:0] Reading Head Instr.
 169500: system.cpu.rob: [tid:0] Reading Head Instr.
 170000: system.cpu.iew: Issue: Processing [tid:0]
 170000: system.cpu.iew: [tid:0] Not blocked, so attempting to run dispatch.
 170000: system.cpu.iew: [tid:0] Getting list of reinsertion ready instructions from WIB
 170000: system.cpu.iew: [tid:0] There are 0 reinsertion ready instructions from WIB
 170000: system.cpu.iq: Attempting to schedule ready instructions from the IQ.
 170000: system.cpu.iq: Not able to schedule any instructions.
 170000: system.cpu.iew: Processing [tid:0]
 170000: system.cpu.iew: [tid:0], Dispatch dispatched 0 instructions.
 170000: system.cpu.iew: IQ has 63 free entries (Can schedule: 0).  LQ has 31 free entries. SQ has 32 free entries.
 170000: system.cpu.rob: [tid:0] Checking if head is ready. ROB size=16
. HEAD SN=4 170000: system.cpu.rob: [tid:0] Reading Head Instr.
 170000: system.cpu.rob: [tid:0] Reading Head Instr.
 170500: system.cpu.iew: Issue: Processing [tid:0]
 170500: system.cpu.iew: [tid:0] Not blocked, so attempting to run dispatch.
 170500: system.cpu.iew: [tid:0] Getting list of reinsertion ready instructions from WIB
 170500: system.cpu.iew: [tid:0] There are 0 reinsertion ready instructions from WIB
 170500: system.cpu.iq: Attempting to schedule ready instructions from the IQ.
 170500: system.cpu.iq: Not able to schedule any instructions.
 170500: system.cpu.iew: Processing [tid:0]
 170500: system.cpu.iew: [tid:0], Dispatch dispatched 0 instructions.
 170500: system.cpu.iew: IQ has 63 free entries (Can schedule: 0).  LQ has 31 free entries. SQ has 32 free entries.
 170500: system.cpu.rob: [tid:0] Checking if head is ready. ROB size=16
. HEAD SN=4 170500: system.cpu.rob: [tid:0] Reading Head Instr.
 170500: system.cpu.rob: [tid:0] Reading Head Instr.
 171000: system.cpu.iew: Issue: Processing [tid:0]
 171000: system.cpu.iew: [tid:0] Not blocked, so attempting to run dispatch.
 171000: system.cpu.iew: [tid:0] Getting list of reinsertion ready instructions from WIB
 171000: system.cpu.iew: [tid:0] There are 0 reinsertion ready instructions from WIB
 171000: system.cpu.iq: Attempting to schedule ready instructions from the IQ.
 171000: system.cpu.iq: Not able to schedule any instructions.
 171000: system.cpu.iew: Processing [tid:0]
 171000: system.cpu.iew: [tid:0], Dispatch dispatched 0 instructions.
 171000: system.cpu.iew: IQ has 63 free entries (Can schedule: 0).  LQ has 31 free entries. SQ has 32 free entries.
 171000: system.cpu.rob: [tid:0] Checking if head is ready. ROB size=16
. HEAD SN=4 171000: system.cpu.rob: [tid:0] Reading Head Instr.
 171000: system.cpu.rob: [tid:0] Reading Head Instr.
 249500: system.cpu.iew: Issue: Processing [tid:0]
 249500: system.cpu.iew: [tid:0] Not blocked, so attempting to run dispatch.
 249500: system.cpu.iew: [tid:0] Getting list of reinsertion ready instructions from WIB
 249500: system.cpu.iew: [tid:0] There are 0 reinsertion ready instructions from WIB
 249500: system.cpu.iq: Attempting to schedule ready instructions from the IQ.
 249500: system.cpu.iq: Not able to schedule any instructions.
 249500: system.cpu.iew: Processing [tid:0]
 249500: system.cpu.iew: [tid:0], Dispatch dispatched 0 instructions.
 249500: system.cpu.iew: IQ has 63 free entries (Can schedule: 0).  LQ has 31 free entries. SQ has 32 free entries.
 249500: system.cpu.rob: [tid:0] Checking if head is ready. ROB size=16
. HEAD SN=4 249500: system.cpu.rob: [tid:0] Reading Head Instr.
 249500: system.cpu.rob: [tid:0] Reading Head Instr.
 250000: system.cpu.iew: Issue: Processing [tid:0]
 250000: system.cpu.iew: [tid:0] Not blocked, so attempting to run dispatch.
 250000: system.cpu.iew: [tid:0] Getting list of reinsertion ready instructions from WIB
 250000: system.cpu.iew: [tid:0] There are 0 reinsertion ready instructions from WIB
 250000: system.cpu.iq: Attempting to schedule ready instructions from the IQ.
 250000: system.cpu.iq: Not able to schedule any instructions.
 250000: system.cpu.iew: Processing [tid:0]
 250000: system.cpu.iew: [tid:0], Dispatch dispatched 0 instructions.
 250000: system.cpu.iew: IQ has 63 free entries (Can schedule: 0).  LQ has 31 free entries. SQ has 32 free entries.
 250000: system.cpu.rob: [tid:0] Checking if head is ready. ROB size=16
. HEAD SN=4 250000: system.cpu.rob: [tid:0] Reading Head Instr.
 250000: system.cpu.rob: [tid:0] Reading Head Instr.
 250500: global: [sn:20] has 1 ready out of 1 sources. RTI 0)
 250500: global: [sn:21] has 1 ready out of 2 sources. RTI 0)
 250500: global: [sn:22] has 1 ready out of 2 sources. RTI 0)
 250500: system.cpu.iew: Issue: Processing [tid:0]
 250500: system.cpu.iew: [tid:0] Not blocked, so attempting to run dispatch.
 250500: system.cpu.iew: [tid:0] Getting list of reinsertion ready instructions from WIB
 250500: system.cpu.iew: [tid:0] There are 0 reinsertion ready instructions from WIB
 250500: system.cpu.iq: Attempting to schedule ready instructions from the IQ.
 250500: system.cpu.iq: Not able to schedule any instructions.
 250500: system.cpu.iew: Processing [tid:0]
 250500: system.cpu.iew: [tid:0], Dispatch dispatched 0 instructions.
 250500: system.cpu.iew: IQ has 63 free entries (Can schedule: 0).  LQ has 31 free entries. SQ has 32 free entries.
 250500: system.cpu.rob: [tid:0] Checking if head is ready. ROB size=16
. HEAD SN=4 250500: system.cpu.rob: [tid:0] Reading Head Instr.
 250500: system.cpu.rob: [tid:0] Reading Head Instr.
 251000: global: [sn:28] has 1 ready out of 2 sources. RTI 0)
 251000: global: [sn:29] has 1 ready out of 2 sources. RTI 0)
 251000: global: [sn:30] has 1 ready out of 2 sources. RTI 0)
 251000: global: [sn:30] has 2 ready out of 2 sources. RTI 0)
 251000: global: [sn:32] has 1 ready out of 2 sources. RTI 0)
 251000: global: [sn:33] has 1 ready out of 2 sources. RTI 0)
 251000: global: [sn:34] has 1 ready out of 2 sources. RTI 0)
 251000: global: [sn:34] has 2 ready out of 2 sources. RTI 0)
 251000: global: [sn:35] has 1 ready out of 2 sources. RTI 0)
 251000: global: [sn:35] has 2 ready out of 2 sources. RTI 0)
 251000: system.cpu.iew: Issue: Processing [tid:0]
 251000: system.cpu.iew: [tid:0] Not blocked, so attempting to run dispatch.
 251000: system.cpu.iew: [tid:0] Getting list of reinsertion ready instructions from WIB
 251000: system.cpu.iew: [tid:0] There are 0 reinsertion ready instructions from WIB
 251000: system.cpu.iq: Attempting to schedule ready instructions from the IQ.
 251000: system.cpu.iq: Not able to schedule any instructions.
 251000: system.cpu.iew: Processing [tid:0]
 251000: system.cpu.iew: [tid:0], Dispatch dispatched 0 instructions.
 251000: system.cpu.iew: IQ has 63 free entries (Can schedule: 0).  LQ has 31 free entries. SQ has 32 free entries.
 251000: system.cpu.rob: Adding inst PC (0x418500=>0x418504).(0=>1) to the ROB.
 251000: system.cpu.rob: [tid:0] Now has 17 instructions.
 251000: system.cpu.rob: Adding inst PC (0x418500=>0x418504).(1=>2) to the ROB.
 251000: system.cpu.rob: [tid:0] Now has 18 instructions.
 251000: system.cpu.rob: Adding inst PC (0x418500=>0x418504).(2=>3) to the ROB.
 251000: system.cpu.rob: [tid:0] Now has 19 instructions.
 251000: system.cpu.rob: Adding inst PC (0x418500=>0x418504).(3=>4) to the ROB.
 251000: system.cpu.rob: [tid:0] Now has 20 instructions.
 251000: system.cpu.rob: Adding inst PC (0x418504=>0x418508).(0=>1) to the ROB.
 251000: system.cpu.rob: [tid:0] Now has 21 instructions.
 251000: system.cpu.rob: Adding inst PC (0x418508=>0x41850c).(0=>1) to the ROB.
 251000: system.cpu.rob: [tid:0] Now has 22 instructions.
 251000: system.cpu.rob: Adding inst PC (0x41850c=>0x418510).(0=>1) to the ROB.
 251000: system.cpu.rob: [tid:0] Now has 23 instructions.
 251000: system.cpu.rob: Adding inst PC (0x418510=>0x418514).(0=>1) to the ROB.
 251000: system.cpu.rob: [tid:0] Now has 24 instructions.
 251000: system.cpu.rob: [tid:0] Checking if head is ready. ROB size=24
. HEAD SN=4 251000: system.cpu.rob: [tid:0] Reading Head Instr.
 251000: system.cpu.rob: [tid:0] Reading Head Instr.
 251500: global: [sn:37] has 1 ready out of 2 sources. RTI 0)
 251500: global: [sn:38] has 1 ready out of 2 sources. RTI 0)
 251500: global: [sn:40] has 1 ready out of 2 sources. RTI 0)
 251500: global: [sn:41] has 1 ready out of 2 sources. RTI 0)
 251500: global: [sn:42] has 1 ready out of 2 sources. RTI 0)
 251500: system.cpu.iew: Issue: Processing [tid:0]
 251500: system.cpu.iew: [tid:0] Not blocked, so attempting to run dispatch.
 251500: system.cpu.iew: [tid:0] Getting list of reinsertion ready instructions from WIB
 251500: system.cpu.iew: [tid:0] There are 0 reinsertion ready instructions from WIB
 251500: system.cpu.iew: [tid:0] Issue: Adding PC (0x418500=>0x418504).(0=>1) [sn:20] [tid:0] to IQ.
 251500: system.cpu.iq: Adding instruction [sn:20] PC (0x418500=>0x418504).(0=>1) to the IQ.
 251500: system.cpu.iq: Instruction is ready to issue, putting it onto the ready list, PC (0x418500=>0x418504).(0=>1) opclass:1 [sn:20].
 251500: system.cpu.iew: [tid:0] Issue: Adding PC (0x418500=>0x418504).(1=>2) [sn:21] [tid:0] to IQ.
 251500: system.cpu.iew: [tid:0] Issue: Memory instruction encountered, adding to LSQ.
 251500: system.cpu.iq: Adding instruction [sn:21] PC (0x418500=>0x418504).(1=>2) to the IQ.
 251500: system.cpu.iq: Instruction PC (0x418500=>0x418504).(1=>2) has src reg 61 (IntRegClass) that is being added to the dependency chain.
 251500: system.cpu.iew: [tid:0] Issue: Adding PC (0x418500=>0x418504).(2=>3) [sn:22] [tid:0] to IQ.
 251500: system.cpu.iew: [tid:0] Issue: Memory instruction encountered, adding to LSQ.
 251500: system.cpu.iq: Adding instruction [sn:22] PC (0x418500=>0x418504).(2=>3) to the IQ.
 251500: system.cpu.iq: Instruction PC (0x418500=>0x418504).(2=>3) has src reg 61 (IntRegClass) that is being added to the dependency chain.
 251500: system.cpu.iew: [tid:0] Issue: Adding PC (0x418500=>0x418504).(3=>4) [sn:23] [tid:0] to IQ.
 251500: system.cpu.iq: Adding instruction [sn:23] PC (0x418500=>0x418504).(3=>4) to the IQ.
 251500: system.cpu.iq: Instruction PC (0x418500=>0x418504).(3=>4) has src reg 61 (IntRegClass) that is being added to the dependency chain.
 251500: system.cpu.iew: [tid:0] Issue: Adding PC (0x418504=>0x418508).(0=>1) [sn:24] [tid:0] to IQ.
 251500: system.cpu.iq: Adding instruction [sn:24] PC (0x418504=>0x418508).(0=>1) to the IQ.
 251500: system.cpu.iq: Instruction is ready to issue, putting it onto the ready list, PC (0x418504=>0x418508).(0=>1) opclass:1 [sn:24].
 251500: system.cpu.iew: [tid:0] Issue: Adding PC (0x418508=>0x41850c).(0=>1) [sn:25] [tid:0] to IQ.
 251500: system.cpu.iq: Adding instruction [sn:25] PC (0x418508=>0x41850c).(0=>1) to the IQ.
 251500: system.cpu.iq: Instruction PC (0x418508=>0x41850c).(0=>1) has src reg 62 (IntRegClass) that is being added to the dependency chain.
 251500: system.cpu.iew: [tid:0] Issue: Adding PC (0x41850c=>0x418510).(0=>1) [sn:26] [tid:0] to IQ.
 251500: system.cpu.iew: [tid:0] Issue: Memory instruction encountered, adding to LSQ.
 251500: system.cpu.iq: Adding instruction [sn:26] PC (0x41850c=>0x418510).(0=>1) to the IQ.
 251500: system.cpu.iq: Instruction PC (0x41850c=>0x418510).(0=>1) has src reg 63 (IntRegClass) that is being added to the dependency chain.
 251500: system.cpu.iew: [tid:0] Issue: Adding PC (0x418510=>0x418514).(0=>1) [sn:27] [tid:0] to IQ.
 251500: system.cpu.iq: Adding instruction [sn:27] PC (0x418510=>0x418514).(0=>1) to the IQ.
 251500: system.cpu.iq: Instruction PC (0x418510=>0x418514).(0=>1) has src reg 62 (IntRegClass) that is being added to the dependency chain.
 251500: system.cpu.iq: Attempting to schedule ready instructions from the IQ.
 251500: system.cpu.iq: Thread 0: Issuing instruction PC (0x418500=>0x418504).(0=>1) [sn:20]
 251500: system.cpu.iq: Thread 0: Issuing instruction PC (0x418504=>0x418508).(0=>1) [sn:24]
 251500: system.cpu.iew: Processing [tid:0]
 251500: system.cpu.iew: [tid:0], Dispatch dispatched 8 instructions.
 251500: system.cpu.iew: IQ has 57 free entries (Can schedule: 0).  LQ has 30 free entries. SQ has 30 free entries.
 251500: system.cpu.rob: Adding inst PC (0x418510=>0x418514).(1=>2) to the ROB.
 251500: system.cpu.rob: [tid:0] Now has 25 instructions.
 251500: system.cpu.rob: Adding inst PC (0x418510=>0x418514).(2=>3) to the ROB.
 251500: system.cpu.rob: [tid:0] Now has 26 instructions.
 251500: system.cpu.rob: Adding inst PC (0x418514=>0x418518).(0=>1) to the ROB.
 251500: system.cpu.rob: [tid:0] Now has 27 instructions.
 251500: system.cpu.rob: Adding inst PC (0x418518=>0x41851c).(0=>1) to the ROB.
 251500: system.cpu.rob: [tid:0] Now has 28 instructions.
 251500: system.cpu.rob: Adding inst PC (0x418518=>0x41851c).(1=>2) to the ROB.
 251500: system.cpu.rob: [tid:0] Now has 29 instructions.
 251500: system.cpu.rob: Adding inst PC (0x418518=>0x41851c).(2=>3) to the ROB.
 251500: system.cpu.rob: [tid:0] Now has 30 instructions.
 251500: system.cpu.rob: Adding inst PC (0x41851c=>0x418520).(0=>1) to the ROB.
 251500: system.cpu.rob: [tid:0] Now has 31 instructions.
 251500: system.cpu.rob: Adding inst PC (0x418520=>0x418524).(0=>1) to the ROB.
 251500: system.cpu.rob: [tid:0] Now has 32 instructions.
 251500: system.cpu.rob: [tid:0] Checking if head is ready. ROB size=32
. HEAD SN=4 251500: system.cpu.rob: [tid:0] Reading Head Instr.
 251500: system.cpu.rob: [tid:0] Reading Head Instr.
 252000: global: [sn:46] has 1 ready out of 2 sources. RTI 0)
 252000: global: [sn:47] has 1 ready out of 2 sources. RTI 0)
 252000: system.cpu.iew: Issue: Processing [tid:0]
 252000: system.cpu.iew: [tid:0] Not blocked, so attempting to run dispatch.
 252000: system.cpu.iew: [tid:0] Getting list of reinsertion ready instructions from WIB
 252000: system.cpu.iew: [tid:0] There are 0 reinsertion ready instructions from WIB
 252000: system.cpu.iew: [tid:0] Issue: Adding PC (0x418510=>0x418514).(1=>2) [sn:28] [tid:0] to IQ.
 252000: system.cpu.iew: [tid:0] Issue: Memory instruction encountered, adding to LSQ.
 252000: system.cpu.iq: Adding instruction [sn:28] PC (0x418510=>0x418514).(1=>2) to the IQ.
 252000: system.cpu.iq: Instruction PC (0x418510=>0x418514).(1=>2) has src reg 66 (IntRegClass) that is being added to the dependency chain.
 252000: system.cpu.iew: [tid:0] Issue: Adding PC (0x418510=>0x418514).(2=>3) [sn:29] [tid:0] to IQ.
 252000: system.cpu.iew: [tid:0] Issue: Memory instruction encountered, adding to LSQ.
 252000: system.cpu.iq: Adding instruction [sn:29] PC (0x418510=>0x418514).(2=>3) to the IQ.
 252000: system.cpu.iq: Instruction PC (0x418510=>0x418514).(2=>3) has src reg 66 (IntRegClass) that is being added to the dependency chain.
 252000: system.cpu.iew: [tid:0] Issue: Adding PC (0x418514=>0x418518).(0=>1) [sn:30] [tid:0] to IQ.
 252000: system.cpu.iq: Adding instruction [sn:30] PC (0x418514=>0x418518).(0=>1) to the IQ.
 252000: system.cpu.iq: Instruction is ready to issue, putting it onto the ready list, PC (0x418514=>0x418518).(0=>1) opclass:1 [sn:30].
 252000: system.cpu.iew: [tid:0] Issue: Adding PC (0x418518=>0x41851c).(0=>1) [sn:31] [tid:0] to IQ.
 252000: system.cpu.iq: Adding instruction [sn:31] PC (0x418518=>0x41851c).(0=>1) to the IQ.
 252000: system.cpu.iq: Instruction PC (0x418518=>0x41851c).(0=>1) has src reg 62 (IntRegClass) that is being added to the dependency chain.
 252000: system.cpu.iew: [tid:0] Issue: Adding PC (0x418518=>0x41851c).(1=>2) [sn:32] [tid:0] to IQ.
 252000: system.cpu.iew: [tid:0] Issue: Memory instruction encountered, adding to LSQ.
 252000: system.cpu.iq: Adding instruction [sn:32] PC (0x418518=>0x41851c).(1=>2) to the IQ.
 252000: system.cpu.iq: Instruction PC (0x418518=>0x41851c).(1=>2) has src reg 68 (IntRegClass) that is being added to the dependency chain.
 252000: system.cpu.iew: [tid:0] Issue: Adding PC (0x418518=>0x41851c).(2=>3) [sn:33] [tid:0] to IQ.
 252000: system.cpu.iew: [tid:0] Issue: Memory instruction encountered, adding to LSQ.
[...]
1641000: system.cpu.rob: [tid:0] Checking if head is ready. ROB size=233
. HEAD SN=721641000: system.cpu.rob: [tid:0] Reading Head Instr.
1641000: system.cpu.rob: [tid:0] Reading Head Instr.
1641500: system.cpu.iew: Issue: Processing [tid:0]
1641500: system.cpu.iew: [tid:0] Done blocking, switching to unblocking.
1641500: system.cpu.iew: [tid:0] Reading instructions out of the skid buffer 0.
1641500: system.cpu.iew: [tid:0] Getting list of reinsertion ready instructions from WIB
1641500: system.cpu.rob: [tid:0] WIB Reading instruction in bank 6. Waiting Status:1 [sn:72]
1641500: system.cpu.rob: [tid:0] WIB Reading instruction in bank 8. Waiting Status:1 [sn:74]
1641500: system.cpu.rob: [tid:0] WIB Reading instruction in bank 9. Waiting Status:1 [sn:75]
1641500: system.cpu.rob: [tid:0] WIB Reading instruction in bank 11. Waiting Status:1 [sn:77]
1641500: system.cpu.rob: [tid:0] WIB Reading instruction in bank 12. Waiting Status:1 [sn:78]
1641500: system.cpu.rob: [tid:0] WIB Reading instruction in bank 13. Waiting Status:1 [sn:79]
1641500: system.cpu.rob: [tid:0] WIB Reading instruction in bank 2. Waiting Status:1 [sn:115]
1641500: system.cpu.rob: [tid:0] WIB Reading instruction in bank 15. Waiting Status:1 [sn:112]
1641500: system.cpu.rob: [tid:0] WIB Reading instruction in bank 4. Waiting Status:1 [sn:117]
1641500: system.cpu.rob: [tid:0] WIB Reading instruction in bank 1. Waiting Status:1 [sn:242]
1641500: system.cpu.rob: [tid:0] WIB Reading instruction in bank 15. Waiting Status:1 [sn:288]
1641500: system.cpu.rob: [tid:0] WIB Reading instruction in bank 0. Waiting Status:1 [sn:289]
1641500: system.cpu.rob: [tid:0] WIB Reading instruction in bank 1. Waiting Status:1 [sn:290]
1641500: system.cpu.rob: [tid:0] WIB Reading instruction in bank 5. Waiting Status:1 [sn:301]
1641500: system.cpu.rob: [tid:0] WIB Reading instruction in bank 6. Waiting Status:1 [sn:322]
1641500: system.cpu.iew: [tid:0] There are 0 reinsertion ready instructions from WIB
1641500: system.cpu.iew: [tid:0] Issue: Examining instruction from skid buffer
1641500: system.cpu.iew: [tid:0] Issue: Adding PC (0x43f14c=>0x43f150).(2=>3) [sn:326] [tid:0] to IQ.
1641500: system.cpu.iew: [tid:0] Issue: SQ has become full.
1641500: system.cpu.iew: [tid:0] Blocking.
1641500: system.cpu.iew: [tid:0] Issue: Bandwidth Full. Blocking.
1641500: system.cpu.iew: [tid:0] Blocking.
1641500: system.cpu.iew: [tid:0] Reading instructions out of the skid buffer 0.
1641500: system.cpu.iq: Attempting to schedule ready instructions from the IQ.
1641500: system.cpu.iq: Not able to schedule any instructions.
1641500: system.cpu.iew: Processing [tid:0]
1641500: system.cpu.iew: [tid:0], Dispatch dispatched 0 instructions.
1641500: system.cpu.iew: IQ has 39 free entries (Can schedule: 0).  LQ has 0 free entries. SQ has 0 free entries.
1641500: system.cpu.rob: [tid:0] Checking if head is ready. ROB size=233
. HEAD SN=721641500: system.cpu.rob: [tid:0] Reading Head Instr.
1641500: system.cpu.rob: [tid:0] Reading Head Instr.
1642000: system.cpu.iew: Issue: Processing [tid:0]
1642000: system.cpu.iew: [tid:0] Done blocking, switching to unblocking.
1642000: system.cpu.iew: [tid:0] Reading instructions out of the skid buffer 0.
1642000: system.cpu.iew: [tid:0] Getting list of reinsertion ready instructions from WIB
1642000: system.cpu.rob: [tid:0] WIB Reading instruction in bank 6. Waiting Status:1 [sn:72]
1642000: system.cpu.rob: [tid:0] WIB Reading instruction in bank 8. Waiting Status:1 [sn:74]
1642000: system.cpu.rob: [tid:0] WIB Reading instruction in bank 9. Waiting Status:1 [sn:75]
1642000: system.cpu.rob: [tid:0] WIB Reading instruction in bank 11. Waiting Status:1 [sn:77]
1642000: system.cpu.rob: [tid:0] WIB Reading instruction in bank 12. Waiting Status:1 [sn:78]
1642000: system.cpu.rob: [tid:0] WIB Reading instruction in bank 13. Waiting Status:1 [sn:79]
1642000: system.cpu.rob: [tid:0] WIB Reading instruction in bank 2. Waiting Status:1 [sn:115]
1642000: system.cpu.rob: [tid:0] WIB Reading instruction in bank 15. Waiting Status:1 [sn:112]
1642000: system.cpu.rob: [tid:0] WIB Reading instruction in bank 4. Waiting Status:1 [sn:117]
1642000: system.cpu.rob: [tid:0] WIB Reading instruction in bank 1. Waiting Status:1 [sn:242]
1642000: system.cpu.rob: [tid:0] WIB Reading instruction in bank 15. Waiting Status:1 [sn:288]
1642000: system.cpu.rob: [tid:0] WIB Reading instruction in bank 0. Waiting Status:1 [sn:289]
1642000: system.cpu.rob: [tid:0] WIB Reading instruction in bank 1. Waiting Status:1 [sn:290]
1642000: system.cpu.rob: [tid:0] WIB Reading instruction in bank 5. Waiting Status:1 [sn:301]
1642000: system.cpu.rob: [tid:0] WIB Reading instruction in bank 6. Waiting Status:1 [sn:322]
1642000: system.cpu.iew: [tid:0] There are 0 reinsertion ready instructions from WIB
1642000: system.cpu.iew: [tid:0] Issue: Examining instruction from skid buffer
1642000: system.cpu.iew: [tid:0] Issue: Adding PC (0x43f14c=>0x43f150).(2=>3) [sn:326] [tid:0] to IQ.
1642000: system.cpu.iew: [tid:0] Issue: SQ has become full.
1642000: system.cpu.iew: [tid:0] Blocking.
1642000: system.cpu.iew: [tid:0] Issue: Bandwidth Full. Blocking.
1642000: system.cpu.iew: [tid:0] Blocking.
1642000: system.cpu.iew: [tid:0] Reading instructions out of the skid buffer 0.
1642000: system.cpu.iq: Attempting to schedule ready instructions from the IQ.
1642000: system.cpu.iq: Not able to schedule any instructions.
1642000: system.cpu.iew: Processing [tid:0]
1642000: system.cpu.iew: [tid:0], Dispatch dispatched 0 instructions.
1642000: system.cpu.iew: IQ has 39 free entries (Can schedule: 0).  LQ has 0 free entries. SQ has 0 free entries.
1642000: system.cpu.rob: [tid:0] Checking if head is ready. ROB size=233
. HEAD SN=721642000: system.cpu.rob: [tid:0] Reading Head Instr.
1642000: system.cpu.rob: [tid:0] Reading Head Instr.
1642500: system.cpu.iew: Issue: Processing [tid:0]
1642500: system.cpu.iew: [tid:0] Done blocking, switching to unblocking.
1642500: system.cpu.iew: [tid:0] Reading instructions out of the skid buffer 0.
1642500: system.cpu.iew: [tid:0] Getting list of reinsertion ready instructions from WIB
1642500: system.cpu.rob: [tid:0] WIB Reading instruction in bank 6. Waiting Status:1 [sn:72]
1642500: system.cpu.rob: [tid:0] WIB Reading instruction in bank 8. Waiting Status:1 [sn:74]
1642500: system.cpu.rob: [tid:0] WIB Reading instruction in bank 9. Waiting Status:1 [sn:75]
1642500: system.cpu.rob: [tid:0] WIB Reading instruction in bank 11. Waiting Status:1 [sn:77]
1642500: system.cpu.rob: [tid:0] WIB Reading instruction in bank 12. Waiting Status:1 [sn:78]
1642500: system.cpu.rob: [tid:0] WIB Reading instruction in bank 13. Waiting Status:1 [sn:79]
1642500: system.cpu.rob: [tid:0] WIB Reading instruction in bank 2. Waiting Status:1 [sn:115]
1642500: system.cpu.rob: [tid:0] WIB Reading instruction in bank 15. Waiting Status:1 [sn:112]
1642500: system.cpu.rob: [tid:0] WIB Reading instruction in bank 4. Waiting Status:1 [sn:117]
1642500: system.cpu.rob: [tid:0] WIB Reading instruction in bank 1. Waiting Status:1 [sn:242]
1642500: system.cpu.rob: [tid:0] WIB Reading instruction in bank 15. Waiting Status:1 [sn:288]
1642500: system.cpu.rob: [tid:0] WIB Reading instruction in bank 0. Waiting Status:1 [sn:289]
1642500: system.cpu.rob: [tid:0] WIB Reading instruction in bank 1. Waiting Status:1 [sn:290]
1642500: system.cpu.rob: [tid:0] WIB Reading instruction in bank 5. Waiting Status:1 [sn:301]
1642500: system.cpu.rob: [tid:0] WIB Reading instruction in bank 6. Waiting Status:1 [sn:322]
1642500: system.cpu.iew: [tid:0] There are 0 reinsertion ready instructions from WIB
1642500: system.cpu.iew: [tid:0] Issue: Examining instruction from skid buffer
1642500: system.cpu.iew: [tid:0] Issue: Adding PC (0x43f14c=>0x43f150).(2=>3) [sn:326] [tid:0] to IQ.
1642500: system.cpu.iew: [tid:0] Issue: SQ has become full.
1642500: system.cpu.iew: [tid:0] Blocking.
1642500: system.cpu.iew: [tid:0] Issue: Bandwidth Full. Blocking.
1642500: system.cpu.iew: [tid:0] Blocking.
1642500: system.cpu.iew: [tid:0] Reading instructions out of the skid buffer 0.
1642500: system.cpu.iq: Attempting to schedule ready instructions from the IQ.
1642500: system.cpu.iq: Not able to schedule any instructions.
1642500: system.cpu.iew: Processing [tid:0]
1642500: system.cpu.iew: [tid:0], Dispatch dispatched 0 instructions.
1642500: system.cpu.iew: IQ has 39 free entries (Can schedule: 0).  LQ has 0 free entries. SQ has 0 free entries.
1642500: system.cpu.rob: [tid:0] Checking if head is ready. ROB size=233
. HEAD SN=721642500: system.cpu.rob: [tid:0] Reading Head Instr.
1642500: system.cpu.rob: [tid:0] Reading Head Instr.
1643000: system.cpu.iew: Issue: Processing [tid:0]
1643000: system.cpu.iew: [tid:0] Done blocking, switching to unblocking.
1643000: system.cpu.iew: [tid:0] Reading instructions out of the skid buffer 0.
1643000: system.cpu.iew: [tid:0] Getting list of reinsertion ready instructions from WIB
1643000: system.cpu.rob: [tid:0] WIB Reading instruction in bank 6. Waiting Status:1 [sn:72]
1643000: system.cpu.rob: [tid:0] WIB Reading instruction in bank 8. Waiting Status:1 [sn:74]
1643000: system.cpu.rob: [tid:0] WIB Reading instruction in bank 9. Waiting Status:1 [sn:75]
1643000: system.cpu.rob: [tid:0] WIB Reading instruction in bank 11. Waiting Status:1 [sn:77]
1643000: system.cpu.rob: [tid:0] WIB Reading instruction in bank 12. Waiting Status:1 [sn:78]
1643000: system.cpu.rob: [tid:0] WIB Reading instruction in bank 13. Waiting Status:1 [sn:79]
1643000: system.cpu.rob: [tid:0] WIB Reading instruction in bank 2. Waiting Status:1 [sn:115]
1643000: system.cpu.rob: [tid:0] WIB Reading instruction in bank 15. Waiting Status:1 [sn:112]
1643000: system.cpu.rob: [tid:0] WIB Reading instruction in bank 4. Waiting Status:1 [sn:117]
1643000: system.cpu.rob: [tid:0] WIB Reading instruction in bank 1. Waiting Status:1 [sn:242]
1643000: system.cpu.rob: [tid:0] WIB Reading instruction in bank 15. Waiting Status:1 [sn:288]
1643000: system.cpu.rob: [tid:0] WIB Reading instruction in bank 0. Waiting Status:1 [sn:289]
1643000: system.cpu.rob: [tid:0] WIB Reading instruction in bank 1. Waiting Status:1 [sn:290]
1643000: system.cpu.rob: [tid:0] WIB Reading instruction in bank 5. Waiting Status:1 [sn:301]
1643000: system.cpu.rob: [tid:0] WIB Reading instruction in bank 6. Waiting Status:1 [sn:322]
1643000: system.cpu.iew: [tid:0] There are 0 reinsertion ready instructions from WIB
1643000: system.cpu.iew: [tid:0] Issue: Examining instruction from skid buffer
1643000: system.cpu.iew: [tid:0] Issue: Adding PC (0x43f14c=>0x43f150).(2=>3) [sn:326] [tid:0] to IQ.
1643000: system.cpu.iew: [tid:0] Issue: SQ has become full.
1643000: system.cpu.iew: [tid:0] Blocking.
1643000: system.cpu.iew: [tid:0] Issue: Bandwidth Full. Blocking.
1643000: system.cpu.iew: [tid:0] Blocking.
1643000: system.cpu.iew: [tid:0] Reading instructions out of the skid buffer 0.
1643000: system.cpu.iq: Attempting to schedule ready instructions from the IQ.
1643000: system.cpu.iq: Not able to schedule any instructions.
1643000: system.cpu.iew: Processing [tid:0]
1643000: system.cpu.iew: [tid:0], Dispatch dispatched 0 instructions.
1643000: system.cpu.iew: IQ has 39 free entries (Can schedule: 0).  LQ has 0 free entries. SQ has 0 free entries.
1643000: system.cpu.rob: [tid:0] Checking if head is ready. ROB size=233
. HEAD SN=721643000: system.cpu.rob: [tid:0] Reading Head Instr.
1643000: system.cpu.rob: [tid:0] Reading Head Instr.
1643500: system.cpu.iew: Issue: Processing [tid:0]
1643500: system.cpu.iew: [tid:0] Done blocking, switching to unblocking.
1643500: system.cpu.iew: [tid:0] Reading instructions out of the skid buffer 0.
1643500: system.cpu.iew: [tid:0] Getting list of reinsertion ready instructions from WIB
1643500: system.cpu.rob: [tid:0] WIB Reading instruction in bank 6. Waiting Status:1 [sn:72]
1643500: system.cpu.rob: [tid:0] WIB Reading instruction in bank 8. Waiting Status:1 [sn:74]
1643500: system.cpu.rob: [tid:0] WIB Reading instruction in bank 9. Waiting Status:1 [sn:75]
1643500: system.cpu.rob: [tid:0] WIB Reading instruction in bank 11. Waiting Status:1 [sn:77]
1643500: system.cpu.rob: [tid:0] WIB Reading instruction in bank 12. Waiting Status:1 [sn:78]
1643500: system.cpu.rob: [tid:0] WIB Reading instruction in bank 13. Waiting Status:1 [sn:79]
1643500: system.cpu.rob: [tid:0] WIB Reading instruction in bank 2. Waiting Status:1 [sn:115]
1643500: system.cpu.rob: [tid:0] WIB Reading instruction in bank 15. Waiting Status:1 [sn:112]
1643500: system.cpu.rob: [tid:0] WIB Reading instruction in bank 4. Waiting Status:1 [sn:117]
1643500: system.cpu.rob: [tid:0] WIB Reading instruction in bank 1. Waiting Status:1 [sn:242]
1643500: system.cpu.rob: [tid:0] WIB Reading instruction in bank 15. Waiting Status:1 [sn:288]
1643500: system.cpu.rob: [tid:0] WIB Reading instruction in bank 0. Waiting Status:1 [sn:289]
1643500: system.cpu.rob: [tid:0] WIB Reading instruction in bank 1. Waiting Status:1 [sn:290]
1643500: system.cpu.rob: [tid:0] WIB Reading instruction in bank 5. Waiting Status:1 [sn:301]
1643500: system.cpu.rob: [tid:0] WIB Reading instruction in bank 6. Waiting Status:1 [sn:322]
1643500: system.cpu.iew: [tid:0] There are 0 reinsertion ready instructions from WIB
1643500: system.cpu.iew: [tid:0] Issue: Examining instruction from skid buffer
1643500: system.cpu.iew: [tid:0] Issue: Adding PC (0x43f14c=>0x43f150).(2=>3) [sn:326] [tid:0] to IQ.
1643500: system.cpu.iew: [tid:0] Issue: SQ has become full.
1643500: system.cpu.iew: [tid:0] Blocking.
1643500: system.cpu.iew: [tid:0] Issue: Bandwidth Full. Blocking.
1643500: system.cpu.iew: [tid:0] Blocking.
1643500: system.cpu.iew: [tid:0] Reading instructions out of the skid buffer 0.
1643500: system.cpu.iq: Attempting to schedule ready instructions from the IQ.
1643500: system.cpu.iq: Not able to schedule any instructions.
1643500: system.cpu.iew: Processing [tid:0]
1643500: system.cpu.iew: [tid:0], Dispatch dispatched 0 instructions.
1643500: system.cpu.iew: IQ has 39 free entries (Can schedule: 0).  LQ has 0 free entries. SQ has 0 free entries.
1643500: system.cpu.rob: [tid:0] Checking if head is ready. ROB size=233
. HEAD SN=721643500: system.cpu.rob: [tid:0] Reading Head Instr.
1643500: system.cpu.rob: [tid:0] Reading Head Instr.
1644000: system.cpu.iew: Issue: Processing [tid:0]
1644000: system.cpu.iew: [tid:0] Done blocking, switching to unblocking.
1644000: system.cpu.iew: [tid:0] Reading instructions out of the skid buffer 0.
1644000: system.cpu.iew: [tid:0] Getting list of reinsertion ready instructions from WIB
1644000: system.cpu.rob: [tid:0] WIB Reading instruction in bank 6. Waiting Status:1 [sn:72]
1644000: system.cpu.rob: [tid:0] WIB Reading instruction in bank 8. Waiting Status:1 [sn:74]
1644000: system.cpu.rob: [tid:0] WIB Reading instruction in bank 9. Waiting Status:1 [sn:75]
1644000: system.cpu.rob: [tid:0] WIB Reading instruction in bank 11. Waiting Status:1 [sn:77]
1644000: system.cpu.rob: [tid:0] WIB Reading instruction in bank 12. Waiting Status:1 [sn:78]
1644000: system.cpu.rob: [tid:0] WIB Reading instruction in bank 13. Waiting Status:1 [sn:79]
1644000: system.cpu.rob: [tid:0] WIB Reading instruction in bank 2. Waiting Status:1 [sn:115]
1644000: system.cpu.rob: [tid:0] WIB Reading instruction in bank 15. Waiting Status:1 [sn:112]
1644000: system.cpu.rob: [tid:0] WIB Reading instruction in bank 4. Waiting Status:1 [sn:117]
1644000: system.cpu.rob: [tid:0] WIB Reading instruction in bank 1. Waiting Status:1 [sn:242]
1644000: system.cpu.rob: [tid:0] WIB Reading instruction in bank 15. Waiting Status:1 [sn:288]
1644000: system.cpu.rob: [tid:0] WIB Reading instruction in bank 0. Waiting Status:1 [sn:289]
1644000: system.cpu.rob: [tid:0] WIB Reading instruction in bank 1. Waiting Status:1 [sn:290]
1644000: system.cpu.rob: [tid:0] WIB Reading instruction in bank 5. Waiting Status:1 [sn:301]
1644000: system.cpu.rob: [tid:0] WIB Reading instruction in bank 6. Waiting Status:1 [sn:322]
1644000: system.cpu.iew: [tid:0] There are 0 reinsertion ready instructions from WIB
1644000: system.cpu.iew: [tid:0] Issue: Examining instruction from skid buffer
1644000: system.cpu.iew: [tid:0] Issue: Adding PC (0x43f14c=>0x43f150).(2=>3) [sn:326] [tid:0] to IQ.
1644000: system.cpu.iew: [tid:0] Issue: SQ has become full.
1644000: system.cpu.iew: [tid:0] Blocking.
1644000: system.cpu.iew: [tid:0] Issue: Bandwidth Full. Blocking.
1644000: system.cpu.iew: [tid:0] Blocking.
1644000: system.cpu.iew: [tid:0] Reading instructions out of the skid buffer 0.
1644000: system.cpu.iq: Attempting to schedule ready instructions from the IQ.
1644000: system.cpu.iq: Not able to schedule any instructions.
1644000: system.cpu.iew: Processing [tid:0]
1644000: system.cpu.iew: [tid:0], Dispatch dispatched 0 instructions.
1644000: system.cpu.iew: IQ has 39 free entries (Can schedule: 0).  LQ has 0 free entries. SQ has 0 free entries.
1644000: system.cpu.rob: [tid:0] Checking if head is ready. ROB size=233
. HEAD SN=721644000: system.cpu.rob: [tid:0] Reading Head Instr.
1644000: system.cpu.rob: [tid:0] Reading Head Instr.
1644500: system.cpu.iew: Issue: Processing [tid:0]
1644500: system.cpu.iew: [tid:0] Done blocking, switching to unblocking.
1644500: system.cpu.iew: [tid:0] Reading instructions out of the skid buffer 0.
1644500: system.cpu.iew: [tid:0] Getting list of reinsertion ready instructions from WIB
1644500: system.cpu.rob: [tid:0] WIB Reading instruction in bank 6. Waiting Status:1 [sn:72]
1644500: system.cpu.rob: [tid:0] WIB Reading instruction in bank 8. Waiting Status:1 [sn:74]
1644500: system.cpu.rob: [tid:0] WIB Reading instruction in bank 9. Waiting Status:1 [sn:75]
1644500: system.cpu.rob: [tid:0] WIB Reading instruction in bank 11. Waiting Status:1 [sn:77]
1644500: system.cpu.rob: [tid:0] WIB Reading instruction in bank 12. Waiting Status:1 [sn:78]
1644500: system.cpu.rob: [tid:0] WIB Reading instruction in bank 13. Waiting Status:1 [sn:79]
1644500: system.cpu.rob: [tid:0] WIB Reading instruction in bank 2. Waiting Status:1 [sn:115]
1644500: system.cpu.rob: [tid:0] WIB Reading instruction in bank 15. Waiting Status:1 [sn:112]
1644500: system.cpu.rob: [tid:0] WIB Reading instruction in bank 4. Waiting Status:1 [sn:117]
1644500: system.cpu.rob: [tid:0] WIB Reading instruction in bank 1. Waiting Status:1 [sn:242]
1644500: system.cpu.rob: [tid:0] WIB Reading instruction in bank 15. Waiting Status:1 [sn:288]
1644500: system.cpu.rob: [tid:0] WIB Reading instruction in bank 0. Waiting Status:1 [sn:289]
1644500: system.cpu.rob: [tid:0] WIB Reading instruction in bank 1. Waiting Status:1 [sn:290]
1644500: system.cpu.rob: [tid:0] WIB Reading instruction in bank 5. Waiting Status:1 [sn:301]
1644500: system.cpu.rob: [tid:0] WIB Reading instruction in bank 6. Waiting Status:1 [sn:322]
1644500: system.cpu.iew: [tid:0] There are 0 reinsertion ready instructions from WIB
1644500: system.cpu.iew: [tid:0] Issue: Examining instruction from skid buffer
1644500: system.cpu.iew: [tid:0] Issue: Adding PC (0x43f14c=>0x43f150).(2=>3) [sn:326] [tid:0] to IQ.
1644500: system.cpu.iew: [tid:0] Issue: SQ has become full.
1644500: system.cpu.iew: [tid:0] Blocking.
1644500: system.cpu.iew: [tid:0] Issue: Bandwidth Full. Blocking.
1644500: system.cpu.iew: [tid:0] Blocking.
1644500: system.cpu.iew: [tid:0] Reading instructions out of the skid buffer 0.
1644500: system.cpu.iq: Attempting to schedule ready instructions from the IQ.
1644500: system.cpu.iq: Not able to schedule any instructions.
1644500: system.cpu.iew: Processing [tid:0]
1644500: system.cpu.iew: [tid:0], Dispatch dispatched 0 instructions.
1644500: system.cpu.iew: IQ has 39 free entries (Can schedule: 0).  LQ has 0 free entries. SQ has 0 free entries.
1644500: system.cpu.rob: [tid:0] Checking if head is ready. ROB size=233
. HEAD SN=721644500: system.cpu.rob: [tid:0] Reading Head Instr.
1644500: system.cpu.rob: [tid:0] Reading Head Instr.
Exiting @ tick 1644500 because user interrupt received
