Global frequency set at 1000000000000 ticks per second
      0: system.cpu.rob: Created ROB
      0: system.cpu.rob: Reseting state.
      0: system.cpu.rob: [tid:0] Getting Tail Bank: 0
      0: system.cpu.rob: [tid:1] Getting Tail Bank: 0
      0: system.cpu.rob: [tid:2] Getting Tail Bank: 0
      0: system.cpu.rob: [tid:3] Getting Tail Bank: 0
      0: system.cpu.rob: Setting active threads list pointer.
gem5 Simulator System.  https://www.gem5.org
gem5 is copyrighted software; use the --copyright option for details.

gem5 version 22.0.0.2
gem5 compiled Nov  6 2025 21:37:19
gem5 started Nov  6 2025 22:51:27
gem5 executing on qstruct.ecn.purdue.edu, pid 3519501
command line: ./build/ECE565-ARM/gem5.opt --debug-flags=ROB configs/spec/spec_se.py --cpu-type=ArmO3CPU --maxinsts=1000000 --l1d_size=64kB --l1i_size=16kB --caches --l2cache -b sjeng

**** REAL SIMULATION ****
      0: system.cpu.rob: Does not need to squash due to being empty [sn:0]
  90500: system.cpu.rob: Adding inst PC (0x401ef4=>0x401ef8).(0=>1) to the ROB.
  90500: system.cpu.rob: [tid:0] Now has 1 instructions.
  90500: system.cpu.rob: Adding inst PC (0x401ef8=>0x401efc).(0=>1) to the ROB.
  90500: system.cpu.rob: [tid:0] Getting Tail Bank: 0
  90500: system.cpu.rob: [tid:0] Now has 2 instructions.
  90500: system.cpu.rob: Adding inst PC (0x401efc=>0x401f00).(0=>1) to the ROB.
  90500: system.cpu.rob: [tid:0] Getting Tail Bank: 1
  90500: system.cpu.rob: [tid:0] Now has 3 instructions.
  90500: system.cpu.rob: [tid:0] Getting Head Bank: 0
  90500: system.cpu.rob: [tid:0] Checking if head is ready. Head bank: 0 size=1
  90500: system.cpu.rob: [tid:0] Reading Head Instr.
  90500: system.cpu.rob: [tid:0] Getting Head Bank: 0
  90500: system.cpu.rob: [tid:0] Reading Head Instr.
  90500: system.cpu.rob: [tid:0] Getting Head Bank: 0
  91000: system.cpu.rob: [tid:0] Getting Head Bank: 0
  91000: system.cpu.rob: [tid:0] Checking if head is ready. Head bank: 0 size=1
  91000: system.cpu.rob: [tid:0] Reading Head Instr.
  91000: system.cpu.rob: [tid:0] Getting Head Bank: 0
  91000: system.cpu.rob: [tid:0] Reading Head Instr.
  91000: system.cpu.rob: [tid:0] Getting Head Bank: 0
  91500: system.cpu.rob: [tid:0] Getting Head Bank: 0
  91500: system.cpu.rob: [tid:0] Checking if head is ready. Head bank: 0 size=1
  91500: system.cpu.rob: [tid:0] Reading Head Instr.
  91500: system.cpu.rob: [tid:0] Getting Head Bank: 0
  91500: system.cpu.rob: [tid:0] Reading Head Instr.
  91500: system.cpu.rob: [tid:0] Getting Head Bank: 0
  92000: system.cpu.rob: [tid:0] Getting Head Bank: 0
  92000: system.cpu.rob: [tid:0] Checking if head is ready. Head bank: 0 size=1
  92000: system.cpu.rob: [tid:0] Reading Head Instr.
  92000: system.cpu.rob: [tid:0] Getting Head Bank: 0
  92000: system.cpu.rob: [tid:0] Reading Head Instr.
  92000: system.cpu.rob: [tid:0] Getting Head Bank: 0
  92500: system.cpu.rob: [tid:0] Getting Head Bank: 0
  92500: system.cpu.rob: [tid:0] Checking if head is ready. Head bank: 0 size=1
  92500: system.cpu.rob: [tid:0] Reading Head Instr.
  92500: system.cpu.rob: [tid:0] Getting Head Bank: 0
  92500: system.cpu.rob: [tid:0] Getting Head Bank: 0
  92500: system.cpu.rob: [tid:0] Retiring head instruction, instruction PC (0x401ef4=>0x401ef8).(0=>1), [sn:1]
  92500: system.cpu.rob: Updating global head ptr.
  92500: system.cpu.rob: [tid:0] Getting Head Bank: 1
  92500: system.cpu.rob: [tid:0] Getting Tail Bank: 2
  92500: system.cpu.rob: [tid:0] Getting Head Bank: 1
  92500: system.cpu.rob: [tid:0] Checking if head is ready. Head bank: 1 size=1
  92500: system.cpu.rob: [tid:0] Reading Head Instr.
  92500: system.cpu.rob: [tid:0] Getting Head Bank: 1
  92500: system.cpu.rob: [tid:0] Getting Head Bank: 1
  92500: system.cpu.rob: [tid:0] Retiring head instruction, instruction PC (0x401ef8=>0x401efc).(0=>1), [sn:2]
  92500: system.cpu.rob: Updating global head ptr.
  92500: system.cpu.rob: [tid:0] Getting Head Bank: 2
  92500: system.cpu.rob: [tid:0] Getting Tail Bank: 2
  92500: system.cpu.rob: [tid:0] Getting Head Bank: 2
  92500: system.cpu.rob: [tid:0] Checking if head is ready. Head bank: 2 size=1
  92500: system.cpu.rob: [tid:0] Reading Head Instr.
  92500: system.cpu.rob: [tid:0] Getting Head Bank: 2
  92500: system.cpu.rob: [tid:0] Getting Head Bank: 2
  92500: system.cpu.rob: [tid:0] Retiring head instruction, instruction PC (0x401efc=>0x401f00).(0=>1), [sn:3]
  92500: system.cpu.rob: Updating global head ptr.
  92500: system.cpu.rob: [tid:0] Getting Head Bank: 0
  92500: system.cpu.rob: [tid:0] Getting Tail Bank: 0
 163000: system.cpu.rob: Adding inst PC (0x401f00=>0x401f04).(0=>1) to the ROB.
 163000: system.cpu.rob: [tid:0] Now has 1 instructions.
 163000: system.cpu.rob: Adding inst PC (0x401f04=>0x401f08).(0=>1) to the ROB.
 163000: system.cpu.rob: [tid:0] Getting Tail Bank: 0
 163000: system.cpu.rob: [tid:0] Now has 2 instructions.
 163000: system.cpu.rob: Adding inst PC (0x401f08=>0x401f0c).(0=>1) to the ROB.
 163000: system.cpu.rob: [tid:0] Getting Tail Bank: 1
 163000: system.cpu.rob: [tid:0] Now has 3 instructions.
 163000: system.cpu.rob: Adding inst PC (0x401f0c=>0x401f10).(0=>1) to the ROB.
 163000: system.cpu.rob: [tid:0] Getting Tail Bank: 2
 163000: system.cpu.rob: [tid:0] Now has 4 instructions.
 163000: system.cpu.rob: Adding inst PC (0x401f10=>0x401f14).(0=>1) to the ROB.
 163000: system.cpu.rob: [tid:0] Getting Tail Bank: 3
 163000: system.cpu.rob: [tid:0] Now has 5 instructions.
 163000: system.cpu.rob: Adding inst PC (0x401f14=>0x401f18).(0=>1) to the ROB.
 163000: system.cpu.rob: [tid:0] Getting Tail Bank: 4
 163000: system.cpu.rob: [tid:0] Now has 6 instructions.
 163000: system.cpu.rob: Adding inst PC (0x401f18=>0x401f1c).(0=>1) to the ROB.
 163000: system.cpu.rob: [tid:0] Getting Tail Bank: 5
 163000: system.cpu.rob: [tid:0] Now has 7 instructions.
 163000: system.cpu.rob: Adding inst PC (0x401f1c=>0x401f20).(0=>1) to the ROB.
 163000: system.cpu.rob: [tid:0] Getting Tail Bank: 6
 163000: system.cpu.rob: [tid:0] Now has 8 instructions.
 163000: system.cpu.rob: [tid:0] Getting Head Bank: 0
 163000: system.cpu.rob: [tid:0] Checking if head is ready. Head bank: 0 size=1
 163000: system.cpu.rob: [tid:0] Reading Head Instr.
 163000: system.cpu.rob: [tid:0] Getting Head Bank: 0
 163000: system.cpu.rob: [tid:0] Reading Head Instr.
 163000: system.cpu.rob: [tid:0] Getting Head Bank: 0
 163500: system.cpu.rob: Adding inst PC (0x401f20=>0x401f24).(0=>1) to the ROB.
 163500: system.cpu.rob: [tid:0] Getting Tail Bank: 7
 163500: system.cpu.rob: [tid:0] Now has 9 instructions.
 163500: system.cpu.rob: Adding inst PC (0x401f24=>0x401f28).(0=>1) to the ROB.
 163500: system.cpu.rob: [tid:0] Getting Tail Bank: 8
 163500: system.cpu.rob: [tid:0] Now has 10 instructions.
 163500: system.cpu.rob: Adding inst PC (0x401f28=>0x401f2c).(0=>1) to the ROB.
 163500: system.cpu.rob: [tid:0] Getting Tail Bank: 9
 163500: system.cpu.rob: [tid:0] Now has 11 instructions.
 163500: system.cpu.rob: Adding inst PC (0x401f2c=>0x401f30).(0=>1) to the ROB.
 163500: system.cpu.rob: [tid:0] Getting Tail Bank: 10
 163500: system.cpu.rob: [tid:0] Now has 12 instructions.
 163500: system.cpu.rob: Adding inst PC (0x401f30=>0x401f34).(0=>1) to the ROB.
 163500: system.cpu.rob: [tid:0] Getting Tail Bank: 11
 163500: system.cpu.rob: [tid:0] Now has 13 instructions.
 163500: system.cpu.rob: Adding inst PC (0x401f34=>0x401f38).(0=>1) to the ROB.
 163500: system.cpu.rob: [tid:0] Getting Tail Bank: 12
 163500: system.cpu.rob: [tid:0] Now has 14 instructions.
 163500: system.cpu.rob: Adding inst PC (0x401f38=>0x401f3c).(0=>1) to the ROB.
 163500: system.cpu.rob: [tid:0] Getting Tail Bank: 13
 163500: system.cpu.rob: [tid:0] Now has 15 instructions.
 163500: system.cpu.rob: Adding inst PC (0x401f3c=>0x401f40).(0=>1) to the ROB.
 163500: system.cpu.rob: [tid:0] Getting Tail Bank: 14
 163500: system.cpu.rob: [tid:0] Now has 16 instructions.
 163500: system.cpu.rob: [tid:0] Getting Head Bank: 0
 163500: system.cpu.rob: [tid:0] Checking if head is ready. Head bank: 0 size=1
 163500: system.cpu.rob: [tid:0] Reading Head Instr.
 163500: system.cpu.rob: [tid:0] Getting Head Bank: 0
 163500: system.cpu.rob: [tid:0] Reading Head Instr.
 163500: system.cpu.rob: [tid:0] Getting Head Bank: 0
 164000: system.cpu.rob: [tid:0] Getting Head Bank: 0
 164000: system.cpu.rob: [tid:0] Checking if head is ready. Head bank: 0 size=1
 164000: system.cpu.rob: [tid:0] Reading Head Instr.
 164000: system.cpu.rob: [tid:0] Getting Head Bank: 0
 164000: system.cpu.rob: [tid:0] Reading Head Instr.
 164000: system.cpu.rob: [tid:0] Getting Head Bank: 0
 164500: system.cpu.rob: [tid:0] Getting Head Bank: 0
 164500: system.cpu.rob: [tid:0] Checking if head is ready. Head bank: 0 size=1
 164500: system.cpu.rob: [tid:0] Reading Head Instr.
 164500: system.cpu.rob: [tid:0] Getting Head Bank: 0
 164500: system.cpu.rob: [tid:0] Reading Head Instr.
 164500: system.cpu.rob: [tid:0] Getting Head Bank: 0
 165000: system.cpu.rob: [tid:0] Getting Head Bank: 0
 165000: system.cpu.rob: [tid:0] Checking if head is ready. Head bank: 0 size=1
 165000: system.cpu.rob: [tid:0] Reading Head Instr.
 165000: system.cpu.rob: [tid:0] Getting Head Bank: 0
 165000: system.cpu.rob: [tid:0] Reading Head Instr.
 165000: system.cpu.rob: [tid:0] Getting Head Bank: 0
 165500: system.cpu.rob: [tid:0] Getting Head Bank: 0
 165500: system.cpu.rob: [tid:0] Checking if head is ready. Head bank: 0 size=1
 165500: system.cpu.rob: [tid:0] Reading Head Instr.
 165500: system.cpu.rob: [tid:0] Getting Head Bank: 0
 165500: system.cpu.rob: [tid:0] Reading Head Instr.
 165500: system.cpu.rob: [tid:0] Getting Head Bank: 0
 166000: system.cpu.rob: [tid:0] Getting Head Bank: 0
 166000: system.cpu.rob: [tid:0] Checking if head is ready. Head bank: 0 size=1
 166000: system.cpu.rob: [tid:0] Reading Head Instr.
 166000: system.cpu.rob: [tid:0] Getting Head Bank: 0
 166000: system.cpu.rob: [tid:0] Reading Head Instr.
 166000: system.cpu.rob: [tid:0] Getting Head Bank: 0
 166500: system.cpu.rob: [tid:0] Getting Head Bank: 0
 166500: system.cpu.rob: [tid:0] Checking if head is ready. Head bank: 0 size=1
 166500: system.cpu.rob: [tid:0] Reading Head Instr.
 166500: system.cpu.rob: [tid:0] Getting Head Bank: 0
 166500: system.cpu.rob: [tid:0] Reading Head Instr.
 166500: system.cpu.rob: [tid:0] Getting Head Bank: 0
 167000: system.cpu.rob: [tid:0] Getting Head Bank: 0
 167000: system.cpu.rob: [tid:0] Checking if head is ready. Head bank: 0 size=1
 167000: system.cpu.rob: [tid:0] Reading Head Instr.
 167000: system.cpu.rob: [tid:0] Getting Head Bank: 0
 167000: system.cpu.rob: [tid:0] Reading Head Instr.
 167000: system.cpu.rob: [tid:0] Getting Head Bank: 0
 167500: system.cpu.rob: [tid:0] Getting Head Bank: 0
 167500: system.cpu.rob: [tid:0] Checking if head is ready. Head bank: 0 size=1
 167500: system.cpu.rob: [tid:0] Reading Head Instr.
 167500: system.cpu.rob: [tid:0] Getting Head Bank: 0
 167500: system.cpu.rob: [tid:0] Reading Head Instr.
 167500: system.cpu.rob: [tid:0] Getting Head Bank: 0
 168000: system.cpu.rob: [tid:0] Getting Head Bank: 0
 168000: system.cpu.rob: [tid:0] Checking if head is ready. Head bank: 0 size=1
 168000: system.cpu.rob: [tid:0] Reading Head Instr.
 168000: system.cpu.rob: [tid:0] Getting Head Bank: 0
 168000: system.cpu.rob: [tid:0] Reading Head Instr.
 168000: system.cpu.rob: [tid:0] Getting Head Bank: 0
 168500: system.cpu.rob: [tid:0] Getting Head Bank: 0
 168500: system.cpu.rob: [tid:0] Checking if head is ready. Head bank: 0 size=1
 168500: system.cpu.rob: [tid:0] Reading Head Instr.
 168500: system.cpu.rob: [tid:0] Getting Head Bank: 0
 168500: system.cpu.rob: [tid:0] Reading Head Instr.
 168500: system.cpu.rob: [tid:0] Getting Head Bank: 0
 169000: system.cpu.rob: [tid:0] Getting Head Bank: 0
 169000: system.cpu.rob: [tid:0] Checking if head is ready. Head bank: 0 size=1
 169000: system.cpu.rob: [tid:0] Reading Head Instr.
 169000: system.cpu.rob: [tid:0] Getting Head Bank: 0
 169000: system.cpu.rob: [tid:0] Reading Head Instr.
 169000: system.cpu.rob: [tid:0] Getting Head Bank: 0
 169500: system.cpu.rob: [tid:0] Getting Head Bank: 0
 169500: system.cpu.rob: [tid:0] Checking if head is ready. Head bank: 0 size=1
 169500: system.cpu.rob: [tid:0] Reading Head Instr.
 169500: system.cpu.rob: [tid:0] Getting Head Bank: 0
 169500: system.cpu.rob: [tid:0] Reading Head Instr.
 169500: system.cpu.rob: [tid:0] Getting Head Bank: 0
 170000: system.cpu.rob: [tid:0] Getting Head Bank: 0
 170000: system.cpu.rob: [tid:0] Checking if head is ready. Head bank: 0 size=1
 170000: system.cpu.rob: [tid:0] Reading Head Instr.
 170000: system.cpu.rob: [tid:0] Getting Head Bank: 0
 170000: system.cpu.rob: [tid:0] Reading Head Instr.
 170000: system.cpu.rob: [tid:0] Getting Head Bank: 0
 170500: system.cpu.rob: [tid:0] Getting Head Bank: 0
 170500: system.cpu.rob: [tid:0] Checking if head is ready. Head bank: 0 size=1
 170500: system.cpu.rob: [tid:0] Reading Head Instr.
 170500: system.cpu.rob: [tid:0] Getting Head Bank: 0
 170500: system.cpu.rob: [tid:0] Reading Head Instr.
 170500: system.cpu.rob: [tid:0] Getting Head Bank: 0
 171000: system.cpu.rob: [tid:0] Getting Head Bank: 0
 171000: system.cpu.rob: [tid:0] Checking if head is ready. Head bank: 0 size=1
 171000: system.cpu.rob: [tid:0] Reading Head Instr.
 171000: system.cpu.rob: [tid:0] Getting Head Bank: 0
 171000: system.cpu.rob: [tid:0] Reading Head Instr.
 171000: system.cpu.rob: [tid:0] Getting Head Bank: 0
 249500: system.cpu.rob: [tid:0] Getting Head Bank: 0
 249500: system.cpu.rob: [tid:0] Checking if head is ready. Head bank: 0 size=1
 249500: system.cpu.rob: [tid:0] Reading Head Instr.
 249500: system.cpu.rob: [tid:0] Getting Head Bank: 0
 249500: system.cpu.rob: [tid:0] Reading Head Instr.
 249500: system.cpu.rob: [tid:0] Getting Head Bank: 0
 250000: system.cpu.rob: [tid:0] Getting Head Bank: 0
 250000: system.cpu.rob: [tid:0] Checking if head is ready. Head bank: 0 size=1
 250000: system.cpu.rob: [tid:0] Reading Head Instr.
 250000: system.cpu.rob: [tid:0] Getting Head Bank: 0
 250000: system.cpu.rob: [tid:0] Reading Head Instr.
 250000: system.cpu.rob: [tid:0] Getting Head Bank: 0
 250500: system.cpu.rob: [tid:0] Getting Head Bank: 0
 250500: system.cpu.rob: [tid:0] Checking if head is ready. Head bank: 0 size=1
 250500: system.cpu.rob: [tid:0] Reading Head Instr.
 250500: system.cpu.rob: [tid:0] Getting Head Bank: 0
 250500: system.cpu.rob: [tid:0] Reading Head Instr.
 250500: system.cpu.rob: [tid:0] Getting Head Bank: 0
 251000: system.cpu.rob: Adding inst PC (0x418500=>0x418504).(0=>1) to the ROB.
 251000: system.cpu.rob: [tid:0] Getting Tail Bank: 15
 251000: system.cpu.rob: [tid:0] Now has 17 instructions.
 251000: system.cpu.rob: Adding inst PC (0x418500=>0x418504).(1=>2) to the ROB.
 251000: system.cpu.rob: [tid:0] Getting Tail Bank: 0
 251000: system.cpu.rob: [tid:0] Now has 18 instructions.
 251000: system.cpu.rob: Adding inst PC (0x418500=>0x418504).(2=>3) to the ROB.
 251000: system.cpu.rob: [tid:0] Getting Tail Bank: 1
 251000: system.cpu.rob: [tid:0] Now has 19 instructions.
 251000: system.cpu.rob: Adding inst PC (0x418500=>0x418504).(3=>4) to the ROB.
 251000: system.cpu.rob: [tid:0] Getting Tail Bank: 2
 251000: system.cpu.rob: [tid:0] Now has 20 instructions.
 251000: system.cpu.rob: Adding inst PC (0x418504=>0x418508).(0=>1) to the ROB.
 251000: system.cpu.rob: [tid:0] Getting Tail Bank: 3
 251000: system.cpu.rob: [tid:0] Now has 21 instructions.
 251000: system.cpu.rob: Adding inst PC (0x418508=>0x41850c).(0=>1) to the ROB.
 251000: system.cpu.rob: [tid:0] Getting Tail Bank: 4
 251000: system.cpu.rob: [tid:0] Now has 22 instructions.
 251000: system.cpu.rob: Adding inst PC (0x41850c=>0x418510).(0=>1) to the ROB.
 251000: system.cpu.rob: [tid:0] Getting Tail Bank: 5
 251000: system.cpu.rob: [tid:0] Now has 23 instructions.
 251000: system.cpu.rob: Adding inst PC (0x418510=>0x418514).(0=>1) to the ROB.
 251000: system.cpu.rob: [tid:0] Getting Tail Bank: 6
 251000: system.cpu.rob: [tid:0] Now has 24 instructions.
 251000: system.cpu.rob: [tid:0] Getting Head Bank: 0
 251000: system.cpu.rob: [tid:0] Checking if head is ready. Head bank: 0 size=2
 251000: system.cpu.rob: [tid:0] Reading Head Instr.
 251000: system.cpu.rob: [tid:0] Getting Head Bank: 0
 251000: system.cpu.rob: [tid:0] Reading Head Instr.
 251000: system.cpu.rob: [tid:0] Getting Head Bank: 0
 251500: system.cpu.rob: Adding inst PC (0x418510=>0x418514).(1=>2) to the ROB.
 251500: system.cpu.rob: [tid:0] Getting Tail Bank: 7
 251500: system.cpu.rob: [tid:0] Now has 25 instructions.
 251500: system.cpu.rob: Adding inst PC (0x418510=>0x418514).(2=>3) to the ROB.
 251500: system.cpu.rob: [tid:0] Getting Tail Bank: 8
 251500: system.cpu.rob: [tid:0] Now has 26 instructions.
 251500: system.cpu.rob: Adding inst PC (0x418514=>0x418518).(0=>1) to the ROB.
 251500: system.cpu.rob: [tid:0] Getting Tail Bank: 9
 251500: system.cpu.rob: [tid:0] Now has 27 instructions.
 251500: system.cpu.rob: Adding inst PC (0x418518=>0x41851c).(0=>1) to the ROB.
 251500: system.cpu.rob: [tid:0] Getting Tail Bank: 10
 251500: system.cpu.rob: [tid:0] Now has 28 instructions.
 251500: system.cpu.rob: Adding inst PC (0x418518=>0x41851c).(1=>2) to the ROB.
 251500: system.cpu.rob: [tid:0] Getting Tail Bank: 11
 251500: system.cpu.rob: [tid:0] Now has 29 instructions.
 251500: system.cpu.rob: Adding inst PC (0x418518=>0x41851c).(2=>3) to the ROB.
 251500: system.cpu.rob: [tid:0] Getting Tail Bank: 12
 251500: system.cpu.rob: [tid:0] Now has 30 instructions.
 251500: system.cpu.rob: Adding inst PC (0x41851c=>0x418520).(0=>1) to the ROB.
 251500: system.cpu.rob: [tid:0] Getting Tail Bank: 13
 251500: system.cpu.rob: [tid:0] Now has 31 instructions.
 251500: system.cpu.rob: Adding inst PC (0x418520=>0x418524).(0=>1) to the ROB.
 251500: system.cpu.rob: [tid:0] Getting Tail Bank: 14
 251500: system.cpu.rob: [tid:0] Now has 32 instructions.
 251500: system.cpu.rob: [tid:0] Getting Head Bank: 0
 251500: system.cpu.rob: [tid:0] Checking if head is ready. Head bank: 0 size=2
 251500: system.cpu.rob: [tid:0] Reading Head Instr.
 251500: system.cpu.rob: [tid:0] Getting Head Bank: 0
 251500: system.cpu.rob: [tid:0] Reading Head Instr.
 251500: system.cpu.rob: [tid:0] Getting Head Bank: 0
 252000: system.cpu.rob: Adding inst PC (0x418524=>0x418528).(0=>1) to the ROB.
 252000: system.cpu.rob: [tid:0] Getting Tail Bank: 15
 252000: system.cpu.rob: [tid:0] Now has 33 instructions.
 252000: system.cpu.rob: Adding inst PC (0x418524=>0x418528).(1=>2) to the ROB.
 252000: system.cpu.rob: [tid:0] Getting Tail Bank: 0
 252000: system.cpu.rob: [tid:0] Now has 34 instructions.
 252000: system.cpu.rob: Adding inst PC (0x418524=>0x418528).(2=>3) to the ROB.
 252000: system.cpu.rob: [tid:0] Getting Tail Bank: 1
 252000: system.cpu.rob: [tid:0] Now has 35 instructions.
 252000: system.cpu.rob: Adding inst PC (0x418528=>0x41852c).(0=>1) to the ROB.
 252000: system.cpu.rob: [tid:0] Getting Tail Bank: 2
 252000: system.cpu.rob: [tid:0] Now has 36 instructions.
 252000: system.cpu.rob: Adding inst PC (0x418528=>0x41852c).(1=>2) to the ROB.
 252000: system.cpu.rob: [tid:0] Getting Tail Bank: 3
 252000: system.cpu.rob: [tid:0] Now has 37 instructions.
 252000: system.cpu.rob: Adding inst PC (0x418528=>0x41852c).(2=>3) to the ROB.
 252000: system.cpu.rob: [tid:0] Getting Tail Bank: 4
 252000: system.cpu.rob: [tid:0] Now has 38 instructions.
 252000: system.cpu.rob: Adding inst PC (0x41852c=>0x418530).(0=>1) to the ROB.
 252000: system.cpu.rob: [tid:0] Getting Tail Bank: 5
 252000: system.cpu.rob: [tid:0] Now has 39 instructions.
 252000: system.cpu.rob: Adding inst PC (0x418530=>0x418534).(0=>1) to the ROB.
 252000: system.cpu.rob: [tid:0] Getting Tail Bank: 6
 252000: system.cpu.rob: [tid:0] Now has 40 instructions.
 252000: system.cpu.rob: [tid:0] Getting Head Bank: 0
 252000: system.cpu.rob: [tid:0] Checking if head is ready. Head bank: 0 size=3
 252000: system.cpu.rob: [tid:0] Reading Head Instr.
 252000: system.cpu.rob: [tid:0] Getting Head Bank: 0
 252000: system.cpu.rob: [tid:0] Reading Head Instr.
 252000: system.cpu.rob: [tid:0] Getting Head Bank: 0
 252500: system.cpu.rob: Adding inst PC (0x418534=>0x418538).(0=>1) to the ROB.
 252500: system.cpu.rob: [tid:0] Getting Tail Bank: 7
 252500: system.cpu.rob: [tid:0] Now has 41 instructions.
 252500: system.cpu.rob: Adding inst PC (0x418538=>0x41853c).(0=>1) to the ROB.
 252500: system.cpu.rob: [tid:0] Getting Tail Bank: 8
 252500: system.cpu.rob: [tid:0] Now has 42 instructions.
 252500: system.cpu.rob: Adding inst PC (0x418538=>0x41853c).(1=>2) to the ROB.
 252500: system.cpu.rob: [tid:0] Getting Tail Bank: 9
 252500: system.cpu.rob: [tid:0] Now has 43 instructions.
 252500: system.cpu.rob: Adding inst PC (0x418538=>0x41853c).(2=>3) to the ROB.
 252500: system.cpu.rob: [tid:0] Getting Tail Bank: 10
 252500: system.cpu.rob: [tid:0] Now has 44 instructions.
 252500: system.cpu.rob: Adding inst PC (0x41853c=>0x418540).(0=>1) to the ROB.
 252500: system.cpu.rob: [tid:0] Getting Tail Bank: 11
 252500: system.cpu.rob: [tid:0] Now has 45 instructions.
 252500: system.cpu.rob: [tid:0] Getting Head Bank: 0
 252500: system.cpu.rob: [tid:0] Checking if head is ready. Head bank: 0 size=3
 252500: system.cpu.rob: [tid:0] Reading Head Instr.
 252500: system.cpu.rob: [tid:0] Getting Head Bank: 0
 252500: system.cpu.rob: [tid:0] Reading Head Instr.
 252500: system.cpu.rob: [tid:0] Getting Head Bank: 0
 253000: system.cpu.rob: [tid:0] Getting Head Bank: 0
 253000: system.cpu.rob: [tid:0] Checking if head is ready. Head bank: 0 size=3
 253000: system.cpu.rob: [tid:0] Reading Head Instr.
 253000: system.cpu.rob: [tid:0] Getting Head Bank: 0
 253000: system.cpu.rob: [tid:0] Reading Head Instr.
 253000: system.cpu.rob: [tid:0] Getting Head Bank: 0
 253500: system.cpu.rob: [tid:0] Getting Head Bank: 0
 253500: system.cpu.rob: [tid:0] Checking if head is ready. Head bank: 0 size=3
 253500: system.cpu.rob: [tid:0] Reading Head Instr.
 253500: system.cpu.rob: [tid:0] Getting Head Bank: 0
 253500: system.cpu.rob: [tid:0] Reading Head Instr.
 253500: system.cpu.rob: [tid:0] Getting Head Bank: 0
 254000: system.cpu.rob: [tid:0] Getting Head Bank: 0
 254000: system.cpu.rob: [tid:0] Checking if head is ready. Head bank: 0 size=3
 254000: system.cpu.rob: [tid:0] Reading Head Instr.
 254000: system.cpu.rob: [tid:0] Getting Head Bank: 0
 254000: system.cpu.rob: [tid:0] Reading Head Instr.
 254000: system.cpu.rob: [tid:0] Getting Head Bank: 0
 254500: system.cpu.rob: [tid:0] Getting Head Bank: 0
 254500: system.cpu.rob: [tid:0] Checking if head is ready. Head bank: 0 size=3
 254500: system.cpu.rob: [tid:0] Reading Head Instr.
 254500: system.cpu.rob: [tid:0] Getting Head Bank: 0
 254500: system.cpu.rob: [tid:0] Reading Head Instr.
 254500: system.cpu.rob: [tid:0] Getting Head Bank: 0
 255000: system.cpu.rob: [tid:0] Getting Head Bank: 0
 255000: system.cpu.rob: [tid:0] Checking if head is ready. Head bank: 0 size=3
 255000: system.cpu.rob: [tid:0] Reading Head Instr.
 255000: system.cpu.rob: [tid:0] Getting Head Bank: 0
 255000: system.cpu.rob: [tid:0] Reading Head Instr.
 255000: system.cpu.rob: [tid:0] Getting Head Bank: 0
 255500: system.cpu.rob: [tid:0] Getting Head Bank: 0
 255500: system.cpu.rob: [tid:0] Checking if head is ready. Head bank: 0 size=3
 255500: system.cpu.rob: [tid:0] Reading Head Instr.
 255500: system.cpu.rob: [tid:0] Getting Head Bank: 0
 255500: system.cpu.rob: [tid:0] Reading Head Instr.
 255500: system.cpu.rob: [tid:0] Getting Head Bank: 0
 256000: system.cpu.rob: [tid:0] Getting Head Bank: 0
 256000: system.cpu.rob: [tid:0] Checking if head is ready. Head bank: 0 size=3
 256000: system.cpu.rob: [tid:0] Reading Head Instr.
 256000: system.cpu.rob: [tid:0] Getting Head Bank: 0
 256000: system.cpu.rob: [tid:0] Reading Head Instr.
 256000: system.cpu.rob: [tid:0] Getting Head Bank: 0
 256500: system.cpu.rob: [tid:0] Getting Head Bank: 0
 256500: system.cpu.rob: [tid:0] Checking if head is ready. Head bank: 0 size=3
 256500: system.cpu.rob: [tid:0] Reading Head Instr.
 256500: system.cpu.rob: [tid:0] Getting Head Bank: 0
 256500: system.cpu.rob: [tid:0] Reading Head Instr.
 256500: system.cpu.rob: [tid:0] Getting Head Bank: 0
 257000: system.cpu.rob: [tid:0] Getting Head Bank: 0
 257000: system.cpu.rob: [tid:0] Checking if head is ready. Head bank: 0 size=3
 257000: system.cpu.rob: [tid:0] Reading Head Instr.
 257000: system.cpu.rob: [tid:0] Getting Head Bank: 0
 257000: system.cpu.rob: [tid:0] Reading Head Instr.
 257000: system.cpu.rob: [tid:0] Getting Head Bank: 0
 257500: system.cpu.rob: [tid:0] Getting Head Bank: 0
 257500: system.cpu.rob: [tid:0] Checking if head is ready. Head bank: 0 size=3
 257500: system.cpu.rob: [tid:0] Reading Head Instr.
 257500: system.cpu.rob: [tid:0] Getting Head Bank: 0
 257500: system.cpu.rob: [tid:0] Reading Head Instr.
 257500: system.cpu.rob: [tid:0] Getting Head Bank: 0
 258000: system.cpu.rob: [tid:0] Getting Head Bank: 0
 258000: system.cpu.rob: [tid:0] Checking if head is ready. Head bank: 0 size=3
 258000: system.cpu.rob: [tid:0] Reading Head Instr.
 258000: system.cpu.rob: [tid:0] Getting Head Bank: 0
 258000: system.cpu.rob: [tid:0] Reading Head Instr.
 258000: system.cpu.rob: [tid:0] Getting Head Bank: 0
 258500: system.cpu.rob: [tid:0] Getting Head Bank: 0
 258500: system.cpu.rob: [tid:0] Checking if head is ready. Head bank: 0 size=3
 258500: system.cpu.rob: [tid:0] Reading Head Instr.
 258500: system.cpu.rob: [tid:0] Getting Head Bank: 0
 258500: system.cpu.rob: [tid:0] Reading Head Instr.
 258500: system.cpu.rob: [tid:0] Getting Head Bank: 0
 259000: system.cpu.rob: [tid:0] Getting Head Bank: 0
 259000: system.cpu.rob: [tid:0] Checking if head is ready. Head bank: 0 size=3
 259000: system.cpu.rob: [tid:0] Reading Head Instr.
 259000: system.cpu.rob: [tid:0] Getting Head Bank: 0
 259000: system.cpu.rob: [tid:0] Reading Head Instr.
 259000: system.cpu.rob: [tid:0] Getting Head Bank: 0
 259500: system.cpu.rob: [tid:0] Getting Head Bank: 0
 259500: system.cpu.rob: [tid:0] Checking if head is ready. Head bank: 0 size=3
 259500: system.cpu.rob: [tid:0] Reading Head Instr.
 259500: system.cpu.rob: [tid:0] Getting Head Bank: 0
 259500: system.cpu.rob: [tid:0] Reading Head Instr.
 259500: system.cpu.rob: [tid:0] Getting Head Bank: 0
 269500: system.cpu.rob: [tid:0] Getting Head Bank: 0
 269500: system.cpu.rob: [tid:0] Checking if head is ready. Head bank: 0 size=3
 269500: system.cpu.rob: [tid:0] Reading Head Instr.
 269500: system.cpu.rob: [tid:0] Getting Head Bank: 0
 269500: system.cpu.rob: [tid:0] Reading Head Instr.
 269500: system.cpu.rob: [tid:0] Getting Head Bank: 0
 270000: system.cpu.rob: [tid:0] Getting Head Bank: 0
 270000: system.cpu.rob: [tid:0] Checking if head is ready. Head bank: 0 size=3
 270000: system.cpu.rob: [tid:0] Reading Head Instr.
 270000: system.cpu.rob: [tid:0] Getting Head Bank: 0
 270000: system.cpu.rob: [tid:0] Reading Head Instr.
 270000: system.cpu.rob: [tid:0] Getting Head Bank: 0
 270500: system.cpu.rob: [tid:0] Getting Head Bank: 0
 270500: system.cpu.rob: [tid:0] Checking if head is ready. Head bank: 0 size=3
 270500: system.cpu.rob: [tid:0] Reading Head Instr.
 270500: system.cpu.rob: [tid:0] Getting Head Bank: 0
 270500: system.cpu.rob: [tid:0] Getting Head Bank: 0
 270500: system.cpu.rob: [tid:0] Retiring head instruction, instruction PC (0x401f00=>0x401f04).(0=>1), [sn:4]
 270500: system.cpu.rob: Updating global head ptr.
 270500: system.cpu.rob: [tid:0] Getting Head Bank: 1
 270500: system.cpu.rob: [tid:0] Getting Tail Bank: 12
 270500: system.cpu.rob: [tid:0] Getting Head Bank: 1
 270500: system.cpu.rob: [tid:0] Checking if head is ready. Head bank: 1 size=3
 270500: system.cpu.rob: [tid:0] Reading Head Instr.
 270500: system.cpu.rob: [tid:0] Getting Head Bank: 1
 270500: system.cpu.rob: [tid:0] Getting Head Bank: 1
 270500: system.cpu.rob: [tid:0] Retiring head instruction, instruction PC (0x401f04=>0x401f08).(0=>1), [sn:5]
 270500: system.cpu.rob: Updating global head ptr.
 270500: system.cpu.rob: [tid:0] Getting Head Bank: 2
 270500: system.cpu.rob: [tid:0] Getting Tail Bank: 12
 270500: system.cpu.rob: [tid:0] Getting Head Bank: 2
 270500: system.cpu.rob: [tid:0] Checking if head is ready. Head bank: 2 size=3
 270500: system.cpu.rob: [tid:0] Reading Head Instr.
 270500: system.cpu.rob: [tid:0] Getting Head Bank: 2
 270500: system.cpu.rob: [tid:0] Getting Head Bank: 2
 270500: system.cpu.rob: [tid:0] Retiring head instruction, instruction PC (0x401f08=>0x401f0c).(0=>1), [sn:6]
 270500: system.cpu.rob: Updating global head ptr.
 270500: system.cpu.rob: [tid:0] Getting Head Bank: 3
 270500: system.cpu.rob: [tid:0] Getting Tail Bank: 12
 270500: system.cpu.rob: [tid:0] Getting Head Bank: 3
 270500: system.cpu.rob: [tid:0] Checking if head is ready. Head bank: 3 size=3
 270500: system.cpu.rob: [tid:0] Reading Head Instr.
 270500: system.cpu.rob: [tid:0] Getting Head Bank: 3
 270500: system.cpu.rob: [tid:0] Getting Head Bank: 3
 270500: system.cpu.rob: [tid:0] Retiring head instruction, instruction PC (0x401f0c=>0x401f10).(0=>1), [sn:7]
 270500: system.cpu.rob: Updating global head ptr.
 270500: system.cpu.rob: [tid:0] Getting Head Bank: 4
 270500: system.cpu.rob: [tid:0] Getting Tail Bank: 12
 270500: system.cpu.rob: [tid:0] Getting Head Bank: 4
 270500: system.cpu.rob: [tid:0] Checking if head is ready. Head bank: 4 size=3
 270500: system.cpu.rob: [tid:0] Reading Head Instr.
 270500: system.cpu.rob: [tid:0] Getting Head Bank: 4
 270500: system.cpu.rob: [tid:0] Getting Head Bank: 4
 270500: system.cpu.rob: [tid:0] Retiring head instruction, instruction PC (0x401f10=>0x401f14).(0=>1), [sn:8]
 270500: system.cpu.rob: Updating global head ptr.
 270500: system.cpu.rob: [tid:0] Getting Head Bank: 5
 270500: system.cpu.rob: [tid:0] Getting Tail Bank: 12
 270500: system.cpu.rob: [tid:0] Getting Head Bank: 5
 270500: system.cpu.rob: [tid:0] Checking if head is ready. Head bank: 5 size=3
 270500: system.cpu.rob: [tid:0] Reading Head Instr.
 270500: system.cpu.rob: [tid:0] Getting Head Bank: 5
 270500: system.cpu.rob: [tid:0] Getting Head Bank: 5
 270500: system.cpu.rob: [tid:0] Retiring head instruction, instruction PC (0x401f14=>0x401f18).(0=>1), [sn:9]
 270500: system.cpu.rob: Updating global head ptr.
 270500: system.cpu.rob: [tid:0] Getting Head Bank: 6
 270500: system.cpu.rob: [tid:0] Getting Tail Bank: 12
 270500: system.cpu.rob: [tid:0] Getting Head Bank: 6
 270500: system.cpu.rob: [tid:0] Checking if head is ready. Head bank: 6 size=3
 270500: system.cpu.rob: [tid:0] Reading Head Instr.
 270500: system.cpu.rob: [tid:0] Getting Head Bank: 6
 270500: system.cpu.rob: [tid:0] Getting Head Bank: 6
 270500: system.cpu.rob: [tid:0] Retiring head instruction, instruction PC (0x401f18=>0x401f1c).(0=>1), [sn:10]
 270500: system.cpu.rob: Updating global head ptr.
 270500: system.cpu.rob: [tid:0] Getting Head Bank: 7
 270500: system.cpu.rob: [tid:0] Getting Tail Bank: 12
 270500: system.cpu.rob: [tid:0] Getting Head Bank: 7
 270500: system.cpu.rob: [tid:0] Checking if head is ready. Head bank: 7 size=3
 270500: system.cpu.rob: [tid:0] Reading Head Instr.
 270500: system.cpu.rob: [tid:0] Getting Head Bank: 7
 270500: system.cpu.rob: [tid:0] Getting Head Bank: 7
 270500: system.cpu.rob: [tid:0] Retiring head instruction, instruction PC (0x401f1c=>0x401f20).(0=>1), [sn:11]
 270500: system.cpu.rob: Updating global head ptr.
 270500: system.cpu.rob: [tid:0] Getting Head Bank: 8
 270500: system.cpu.rob: [tid:0] Getting Tail Bank: 12
 270500: system.cpu.rob: [tid:0] Reading Head Instr.
 270500: system.cpu.rob: [tid:0] Getting Head Bank: 8
 270500: system.cpu.rob: [tid:0] Reading Head Instr.
 270500: system.cpu.rob: [tid:0] Getting Head Bank: 8
 271000: system.cpu.rob: [tid:0] Getting Head Bank: 8
 271000: system.cpu.rob: [tid:0] Checking if head is ready. Head bank: 8 size=3
 271000: system.cpu.rob: [tid:0] Reading Head Instr.
 271000: system.cpu.rob: [tid:0] Getting Head Bank: 8
 271000: system.cpu.rob: [tid:0] Getting Head Bank: 8
 271000: system.cpu.rob: [tid:0] Retiring head instruction, instruction PC (0x401f20=>0x401f24).(0=>1), [sn:12]
 271000: system.cpu.rob: Updating global head ptr.
 271000: system.cpu.rob: [tid:0] Getting Head Bank: 9
 271000: system.cpu.rob: [tid:0] Getting Tail Bank: 12
 271000: system.cpu.rob: [tid:0] Getting Head Bank: 9
 271000: system.cpu.rob: [tid:0] Checking if head is ready. Head bank: 9 size=3
 271000: system.cpu.rob: [tid:0] Reading Head Instr.
 271000: system.cpu.rob: [tid:0] Getting Head Bank: 9
 271000: system.cpu.rob: [tid:0] Getting Head Bank: 9
 271000: system.cpu.rob: [tid:0] Retiring head instruction, instruction PC (0x401f24=>0x401f28).(0=>1), [sn:13]
 271000: system.cpu.rob: Updating global head ptr.
 271000: system.cpu.rob: [tid:0] Getting Head Bank: 10
 271000: system.cpu.rob: [tid:0] Getting Tail Bank: 12
 271000: system.cpu.rob: [tid:0] Getting Head Bank: 10
 271000: system.cpu.rob: [tid:0] Checking if head is ready. Head bank: 10 size=3
 271000: system.cpu.rob: [tid:0] Reading Head Instr.
 271000: system.cpu.rob: [tid:0] Getting Head Bank: 10
 271000: system.cpu.rob: [tid:0] Getting Head Bank: 10
 271000: system.cpu.rob: [tid:0] Retiring head instruction, instruction PC (0x401f28=>0x401f2c).(0=>1), [sn:14]
 271000: system.cpu.rob: Updating global head ptr.
 271000: system.cpu.rob: [tid:0] Getting Head Bank: 11
 271000: system.cpu.rob: [tid:0] Getting Tail Bank: 12
 271000: system.cpu.rob: [tid:0] Getting Head Bank: 11
 271000: system.cpu.rob: [tid:0] Checking if head is ready. Head bank: 11 size=3
 271000: system.cpu.rob: [tid:0] Reading Head Instr.
 271000: system.cpu.rob: [tid:0] Getting Head Bank: 11
 271000: system.cpu.rob: [tid:0] Getting Head Bank: 11
 271000: system.cpu.rob: [tid:0] Retiring head instruction, instruction PC (0x401f2c=>0x401f30).(0=>1), [sn:15]
 271000: system.cpu.rob: Updating global head ptr.
 271000: system.cpu.rob: [tid:0] Getting Head Bank: 12
 271000: system.cpu.rob: [tid:0] Getting Tail Bank: 12
 271000: system.cpu.rob: [tid:0] Getting Head Bank: 12
 271000: system.cpu.rob: [tid:0] Checking if head is ready. Head bank: 12 size=3
 271000: system.cpu.rob: [tid:0] Reading Head Instr.
 271000: system.cpu.rob: [tid:0] Getting Head Bank: 12
 271000: system.cpu.rob: [tid:0] Getting Head Bank: 12
 271000: system.cpu.rob: [tid:0] Retiring head instruction, instruction PC (0x401f30=>0x401f34).(0=>1), [sn:16]
 271000: system.cpu.rob: Updating global head ptr.
 271000: system.cpu.rob: [tid:0] Getting Head Bank: 13
 271000: system.cpu.rob: [tid:0] Getting Tail Bank: 12
 271000: system.cpu.rob: [tid:0] Getting Head Bank: 13
 271000: system.cpu.rob: [tid:0] Checking if head is ready. Head bank: 13 size=2
 271000: system.cpu.rob: [tid:0] Reading Head Instr.
 271000: system.cpu.rob: [tid:0] Getting Head Bank: 13
 271000: system.cpu.rob: [tid:0] Getting Head Bank: 13
 271000: system.cpu.rob: [tid:0] Retiring head instruction, instruction PC (0x401f34=>0x401f38).(0=>1), [sn:17]
 271000: system.cpu.rob: Updating global head ptr.
 271000: system.cpu.rob: [tid:0] Getting Head Bank: 14
 271000: system.cpu.rob: [tid:0] Getting Tail Bank: 12
 271000: system.cpu.rob: [tid:0] Getting Head Bank: 14
 271000: system.cpu.rob: [tid:0] Checking if head is ready. Head bank: 14 size=2
 271000: system.cpu.rob: [tid:0] Reading Head Instr.
 271000: system.cpu.rob: [tid:0] Getting Head Bank: 14
 271000: system.cpu.rob: [tid:0] Getting Head Bank: 14
 271000: system.cpu.rob: [tid:0] Retiring head instruction, instruction PC (0x401f38=>0x401f3c).(0=>1), [sn:18]
 271000: system.cpu.rob: Updating global head ptr.
 271000: system.cpu.rob: [tid:0] Getting Head Bank: 15
 271000: system.cpu.rob: [tid:0] Getting Tail Bank: 12
 271000: system.cpu.rob: [tid:0] Getting Head Bank: 15
 271000: system.cpu.rob: [tid:0] Checking if head is ready. Head bank: 15 size=2
 271000: system.cpu.rob: [tid:0] Reading Head Instr.
 271000: system.cpu.rob: [tid:0] Getting Head Bank: 15
 271000: system.cpu.rob: [tid:0] Getting Head Bank: 15
 271000: system.cpu.rob: [tid:0] Retiring head instruction, instruction PC (0x401f3c=>0x418500).(0=>1), [sn:19]
 271000: system.cpu.rob: Updating global head ptr.
 271000: system.cpu.rob: [tid:0] Getting Head Bank: 0
 271000: system.cpu.rob: [tid:0] Getting Tail Bank: 12
 271000: system.cpu.rob: [tid:0] Reading Head Instr.
 271000: system.cpu.rob: [tid:0] Getting Head Bank: 0
 271000: system.cpu.rob: [tid:0] Reading Head Instr.
 271000: system.cpu.rob: [tid:0] Getting Head Bank: 0
 271500: system.cpu.rob: [tid:0] Getting Head Bank: 0
 271500: system.cpu.rob: [tid:0] Checking if head is ready. Head bank: 0 size=2
 271500: system.cpu.rob: [tid:0] Reading Head Instr.
 271500: system.cpu.rob: [tid:0] Getting Head Bank: 0
 271500: system.cpu.rob: [tid:0] Getting Head Bank: 0
 271500: system.cpu.rob: [tid:0] Retiring head instruction, instruction PC (0x418500=>0x418504).(0=>1), [sn:20]
 271500: system.cpu.rob: Updating global head ptr.
 271500: system.cpu.rob: [tid:0] Getting Head Bank: 1
 271500: system.cpu.rob: [tid:0] Getting Tail Bank: 12
 271500: system.cpu.rob: [tid:0] Getting Head Bank: 1
 271500: system.cpu.rob: [tid:0] Checking if head is ready. Head bank: 1 size=2
 271500: system.cpu.rob: [tid:0] Reading Head Instr.
 271500: system.cpu.rob: [tid:0] Getting Head Bank: 1
 271500: system.cpu.rob: [tid:0] Getting Head Bank: 1
 271500: system.cpu.rob: [tid:0] Retiring head instruction, instruction PC (0x418500=>0x418504).(1=>2), [sn:21]
 271500: system.cpu.rob: Updating global head ptr.
 271500: system.cpu.rob: [tid:0] Getting Head Bank: 2
 271500: system.cpu.rob: [tid:0] Getting Tail Bank: 12
 271500: system.cpu.rob: [tid:0] Getting Head Bank: 2
 271500: system.cpu.rob: [tid:0] Checking if head is ready. Head bank: 2 size=2
 271500: system.cpu.rob: [tid:0] Reading Head Instr.
 271500: system.cpu.rob: [tid:0] Getting Head Bank: 2
 271500: system.cpu.rob: [tid:0] Getting Head Bank: 2
 271500: system.cpu.rob: [tid:0] Retiring head instruction, instruction PC (0x418500=>0x418504).(2=>3), [sn:22]
 271500: system.cpu.rob: Updating global head ptr.
 271500: system.cpu.rob: [tid:0] Getting Head Bank: 3
 271500: system.cpu.rob: [tid:0] Getting Tail Bank: 12
 271500: system.cpu.rob: [tid:0] Getting Head Bank: 3
 271500: system.cpu.rob: [tid:0] Checking if head is ready. Head bank: 3 size=2
 271500: system.cpu.rob: [tid:0] Reading Head Instr.
 271500: system.cpu.rob: [tid:0] Getting Head Bank: 3
 271500: system.cpu.rob: [tid:0] Getting Head Bank: 3
 271500: system.cpu.rob: [tid:0] Retiring head instruction, instruction PC (0x418500=>0x418504).(3=>4), [sn:23]
 271500: system.cpu.rob: Updating global head ptr.
 271500: system.cpu.rob: [tid:0] Getting Head Bank: 4
 271500: system.cpu.rob: [tid:0] Getting Tail Bank: 12
 271500: system.cpu.rob: [tid:0] Getting Head Bank: 4
 271500: system.cpu.rob: [tid:0] Checking if head is ready. Head bank: 4 size=2
 271500: system.cpu.rob: [tid:0] Reading Head Instr.
 271500: system.cpu.rob: [tid:0] Getting Head Bank: 4
 271500: system.cpu.rob: [tid:0] Getting Head Bank: 4
 271500: system.cpu.rob: [tid:0] Retiring head instruction, instruction PC (0x418504=>0x418508).(0=>1), [sn:24]
 271500: system.cpu.rob: Updating global head ptr.
 271500: system.cpu.rob: [tid:0] Getting Head Bank: 5
 271500: system.cpu.rob: [tid:0] Getting Tail Bank: 12
 271500: system.cpu.rob: [tid:0] Getting Head Bank: 5
 271500: system.cpu.rob: [tid:0] Checking if head is ready. Head bank: 5 size=2
 271500: system.cpu.rob: [tid:0] Reading Head Instr.
 271500: system.cpu.rob: [tid:0] Getting Head Bank: 5
 271500: system.cpu.rob: [tid:0] Getting Head Bank: 5
 271500: system.cpu.rob: [tid:0] Retiring head instruction, instruction PC (0x418508=>0x41850c).(0=>1), [sn:25]
 271500: system.cpu.rob: Updating global head ptr.
 271500: system.cpu.rob: [tid:0] Getting Head Bank: 6
 271500: system.cpu.rob: [tid:0] Getting Tail Bank: 12
 271500: system.cpu.rob: [tid:0] Getting Head Bank: 6
 271500: system.cpu.rob: [tid:0] Checking if head is ready. Head bank: 6 size=2
 271500: system.cpu.rob: [tid:0] Reading Head Instr.
 271500: system.cpu.rob: [tid:0] Getting Head Bank: 6
 271500: system.cpu.rob: [tid:0] Reading Head Instr.
 271500: system.cpu.rob: [tid:0] Getting Head Bank: 6
 272000: system.cpu.rob: [tid:0] Getting Head Bank: 6
 272000: system.cpu.rob: [tid:0] Checking if head is ready. Head bank: 6 size=2
 272000: system.cpu.rob: [tid:0] Reading Head Instr.
 272000: system.cpu.rob: [tid:0] Getting Head Bank: 6
 272000: system.cpu.rob: [tid:0] Reading Head Instr.
 272000: system.cpu.rob: [tid:0] Getting Head Bank: 6
 272500: system.cpu.rob: [tid:0] Getting Head Bank: 6
 272500: system.cpu.rob: [tid:0] Checking if head is ready. Head bank: 6 size=2
 272500: system.cpu.rob: [tid:0] Reading Head Instr.
 272500: system.cpu.rob: [tid:0] Getting Head Bank: 6
 272500: system.cpu.rob: [tid:0] Reading Head Instr.
 272500: system.cpu.rob: [tid:0] Getting Head Bank: 6
 273000: system.cpu.rob: [tid:0] Getting Head Bank: 6
 273000: system.cpu.rob: [tid:0] Checking if head is ready. Head bank: 6 size=2
 273000: system.cpu.rob: [tid:0] Reading Head Instr.
 273000: system.cpu.rob: [tid:0] Getting Head Bank: 6
 273000: system.cpu.rob: [tid:0] Reading Head Instr.
 273000: system.cpu.rob: [tid:0] Getting Head Bank: 6
 273500: system.cpu.rob: [tid:0] Getting Head Bank: 6
 273500: system.cpu.rob: [tid:0] Checking if head is ready. Head bank: 6 size=2
 273500: system.cpu.rob: [tid:0] Reading Head Instr.
 273500: system.cpu.rob: [tid:0] Getting Head Bank: 6
 273500: system.cpu.rob: [tid:0] Reading Head Instr.
 273500: system.cpu.rob: [tid:0] Getting Head Bank: 6
 274000: system.cpu.rob: [tid:0] Getting Head Bank: 6
 274000: system.cpu.rob: [tid:0] Checking if head is ready. Head bank: 6 size=2
 274000: system.cpu.rob: [tid:0] Reading Head Instr.
 274000: system.cpu.rob: [tid:0] Getting Head Bank: 6
 274000: system.cpu.rob: [tid:0] Reading Head Instr.
 274000: system.cpu.rob: [tid:0] Getting Head Bank: 6
 274500: system.cpu.rob: [tid:0] Getting Head Bank: 6
 274500: system.cpu.rob: [tid:0] Checking if head is ready. Head bank: 6 size=2
 274500: system.cpu.rob: [tid:0] Reading Head Instr.
 274500: system.cpu.rob: [tid:0] Getting Head Bank: 6
 274500: system.cpu.rob: [tid:0] Reading Head Instr.
 274500: system.cpu.rob: [tid:0] Getting Head Bank: 6
 275000: system.cpu.rob: [tid:0] Getting Head Bank: 6
 275000: system.cpu.rob: [tid:0] Checking if head is ready. Head bank: 6 size=2
 275000: system.cpu.rob: [tid:0] Reading Head Instr.
 275000: system.cpu.rob: [tid:0] Getting Head Bank: 6
 275000: system.cpu.rob: [tid:0] Reading Head Instr.
 275000: system.cpu.rob: [tid:0] Getting Head Bank: 6
 275500: system.cpu.rob: [tid:0] Getting Head Bank: 6
 275500: system.cpu.rob: [tid:0] Checking if head is ready. Head bank: 6 size=2
 275500: system.cpu.rob: [tid:0] Reading Head Instr.
 275500: system.cpu.rob: [tid:0] Getting Head Bank: 6
 275500: system.cpu.rob: [tid:0] Reading Head Instr.
 275500: system.cpu.rob: [tid:0] Getting Head Bank: 6
 276000: system.cpu.rob: [tid:0] Getting Head Bank: 6
 276000: system.cpu.rob: [tid:0] Checking if head is ready. Head bank: 6 size=2
 276000: system.cpu.rob: [tid:0] Reading Head Instr.
 276000: system.cpu.rob: [tid:0] Getting Head Bank: 6
 276000: system.cpu.rob: [tid:0] Reading Head Instr.
 276000: system.cpu.rob: [tid:0] Getting Head Bank: 6
 276500: system.cpu.rob: [tid:0] Getting Head Bank: 6
 276500: system.cpu.rob: [tid:0] Checking if head is ready. Head bank: 6 size=2
 276500: system.cpu.rob: [tid:0] Reading Head Instr.
 276500: system.cpu.rob: [tid:0] Getting Head Bank: 6
 276500: system.cpu.rob: [tid:0] Reading Head Instr.
 276500: system.cpu.rob: [tid:0] Getting Head Bank: 6
 277000: system.cpu.rob: [tid:0] Getting Head Bank: 6
 277000: system.cpu.rob: [tid:0] Checking if head is ready. Head bank: 6 size=2
 277000: system.cpu.rob: [tid:0] Reading Head Instr.
 277000: system.cpu.rob: [tid:0] Getting Head Bank: 6
 277000: system.cpu.rob: [tid:0] Reading Head Instr.
 277000: system.cpu.rob: [tid:0] Getting Head Bank: 6
 277500: system.cpu.rob: [tid:0] Getting Head Bank: 6
 277500: system.cpu.rob: [tid:0] Checking if head is ready. Head bank: 6 size=2
 277500: system.cpu.rob: [tid:0] Reading Head Instr.
 277500: system.cpu.rob: [tid:0] Getting Head Bank: 6
 277500: system.cpu.rob: [tid:0] Reading Head Instr.
 277500: system.cpu.rob: [tid:0] Getting Head Bank: 6
 323500: system.cpu.rob: [tid:0] Getting Head Bank: 6
 323500: system.cpu.rob: [tid:0] Checking if head is ready. Head bank: 6 size=2
 323500: system.cpu.rob: [tid:0] Reading Head Instr.
 323500: system.cpu.rob: [tid:0] Getting Head Bank: 6
 323500: system.cpu.rob: [tid:0] Reading Head Instr.
 323500: system.cpu.rob: [tid:0] Getting Head Bank: 6
 324000: system.cpu.rob: [tid:0] Getting Head Bank: 6
 324000: system.cpu.rob: [tid:0] Checking if head is ready. Head bank: 6 size=2
 324000: system.cpu.rob: [tid:0] Reading Head Instr.
 324000: system.cpu.rob: [tid:0] Getting Head Bank: 6
 324000: system.cpu.rob: [tid:0] Reading Head Instr.
 324000: system.cpu.rob: [tid:0] Getting Head Bank: 6
 324500: system.cpu.rob: [tid:0] Getting Head Bank: 6
 324500: system.cpu.rob: [tid:0] Checking if head is ready. Head bank: 6 size=2
 324500: system.cpu.rob: [tid:0] Reading Head Instr.
 324500: system.cpu.rob: [tid:0] Getting Head Bank: 6
 324500: system.cpu.rob: [tid:0] Reading Head Instr.
 324500: system.cpu.rob: [tid:0] Getting Head Bank: 6
 325000: system.cpu.rob: Adding inst PC (0x418540=>0x418544).(0=>1) to the ROB.
 325000: system.cpu.rob: [tid:0] Getting Tail Bank: 12
 325000: system.cpu.rob: [tid:0] Now has 24 instructions.
 325000: system.cpu.rob: Adding inst PC (0x418544=>0x418548).(0=>1) to the ROB.
 325000: system.cpu.rob: [tid:0] Getting Tail Bank: 13
 325000: system.cpu.rob: [tid:0] Now has 25 instructions.
 325000: system.cpu.rob: Adding inst PC (0x418548=>0x41854c).(0=>1) to the ROB.
 325000: system.cpu.rob: [tid:0] Getting Tail Bank: 14
 325000: system.cpu.rob: [tid:0] Now has 26 instructions.
 325000: system.cpu.rob: Adding inst PC (0x41854c=>0x418550).(0=>1) to the ROB.
 325000: system.cpu.rob: [tid:0] Getting Tail Bank: 15
 325000: system.cpu.rob: [tid:0] Now has 27 instructions.
 325000: system.cpu.rob: Adding inst PC (0x418550=>0x418554).(0=>1) to the ROB.
 325000: system.cpu.rob: [tid:0] Getting Tail Bank: 0
 325000: system.cpu.rob: [tid:0] Now has 28 instructions.
 325000: system.cpu.rob: Adding inst PC (0x418554=>0x418558).(0=>1) to the ROB.
 325000: system.cpu.rob: [tid:0] Getting Tail Bank: 1
 325000: system.cpu.rob: [tid:0] Now has 29 instructions.
 325000: system.cpu.rob: Adding inst PC (0x418558=>0x41855c).(0=>1) to the ROB.
 325000: system.cpu.rob: [tid:0] Getting Tail Bank: 2
 325000: system.cpu.rob: [tid:0] Now has 30 instructions.
 325000: system.cpu.rob: Adding inst PC (0x41855c=>0x418560).(0=>1) to the ROB.
 325000: system.cpu.rob: [tid:0] Getting Tail Bank: 3
 325000: system.cpu.rob: [tid:0] Now has 31 instructions.
 325000: system.cpu.rob: [tid:0] Getting Head Bank: 6
 325000: system.cpu.rob: [tid:0] Checking if head is ready. Head bank: 6 size=2
 325000: system.cpu.rob: [tid:0] Reading Head Instr.
 325000: system.cpu.rob: [tid:0] Getting Head Bank: 6
 325000: system.cpu.rob: [tid:0] Reading Head Instr.
 325000: system.cpu.rob: [tid:0] Getting Head Bank: 6
 325500: system.cpu.rob: Adding inst PC (0x418560=>0x418564).(0=>1) to the ROB.
 325500: system.cpu.rob: [tid:0] Getting Tail Bank: 4
 325500: system.cpu.rob: [tid:0] Now has 32 instructions.
 325500: system.cpu.rob: Adding inst PC (0x418564=>0x418568).(0=>1) to the ROB.
 325500: system.cpu.rob: [tid:0] Getting Tail Bank: 5
 325500: system.cpu.rob: [tid:0] Now has 33 instructions.
 325500: system.cpu.rob: Adding inst PC (0x418568=>0x41856c).(0=>1) to the ROB.
 325500: system.cpu.rob: [tid:0] Getting Tail Bank: 6
 325500: system.cpu.rob: [tid:0] Now has 34 instructions.
 325500: system.cpu.rob: Adding inst PC (0x41856c=>0x418570).(0=>1) to the ROB.
 325500: system.cpu.rob: [tid:0] Getting Tail Bank: 7
 325500: system.cpu.rob: [tid:0] Now has 35 instructions.
 325500: system.cpu.rob: Adding inst PC (0x418570=>0x418574).(0=>1) to the ROB.
 325500: system.cpu.rob: [tid:0] Getting Tail Bank: 8
 325500: system.cpu.rob: [tid:0] Now has 36 instructions.
 325500: system.cpu.rob: Adding inst PC (0x418574=>0x418578).(0=>1) to the ROB.
 325500: system.cpu.rob: [tid:0] Getting Tail Bank: 9
 325500: system.cpu.rob: [tid:0] Now has 37 instructions.
 325500: system.cpu.rob: Adding inst PC (0x418578=>0x41857c).(0=>1) to the ROB.
 325500: system.cpu.rob: [tid:0] Getting Tail Bank: 10
 325500: system.cpu.rob: [tid:0] Now has 38 instructions.
 325500: system.cpu.rob: Adding inst PC (0x418578=>0x41857c).(1=>2) to the ROB.
 325500: system.cpu.rob: [tid:0] Getting Tail Bank: 11
 325500: system.cpu.rob: [tid:0] Now has 39 instructions.
 325500: system.cpu.rob: [tid:0] Getting Head Bank: 6
 325500: system.cpu.rob: [tid:0] Checking if head is ready. Head bank: 6 size=3
 325500: system.cpu.rob: [tid:0] Reading Head Instr.
 325500: system.cpu.rob: [tid:0] Getting Head Bank: 6
 325500: system.cpu.rob: [tid:0] Reading Head Instr.
 325500: system.cpu.rob: [tid:0] Getting Head Bank: 6
 326000: system.cpu.rob: Adding inst PC (0x41857c=>0x418580).(0=>1) to the ROB.
 326000: system.cpu.rob: [tid:0] Getting Tail Bank: 12
 326000: system.cpu.rob: [tid:0] Now has 40 instructions.
 326000: system.cpu.rob: [tid:0] Getting Head Bank: 6
 326000: system.cpu.rob: [tid:0] Checking if head is ready. Head bank: 6 size=3
 326000: system.cpu.rob: [tid:0] Reading Head Instr.
 326000: system.cpu.rob: [tid:0] Getting Head Bank: 6
 326000: system.cpu.rob: [tid:0] Reading Head Instr.
 326000: system.cpu.rob: [tid:0] Getting Head Bank: 6
 326500: system.cpu.rob: [tid:0] Getting Head Bank: 6
 326500: system.cpu.rob: [tid:0] Checking if head is ready. Head bank: 6 size=3
 326500: system.cpu.rob: [tid:0] Reading Head Instr.
 326500: system.cpu.rob: [tid:0] Getting Head Bank: 6
 326500: system.cpu.rob: [tid:0] Reading Head Instr.
 326500: system.cpu.rob: [tid:0] Getting Head Bank: 6
 327000: system.cpu.rob: [tid:0] Getting Head Bank: 6
 327000: system.cpu.rob: [tid:0] Checking if head is ready. Head bank: 6 size=3
 327000: system.cpu.rob: [tid:0] Reading Head Instr.
 327000: system.cpu.rob: [tid:0] Getting Head Bank: 6
 327000: system.cpu.rob: [tid:0] Reading Head Instr.
 327000: system.cpu.rob: [tid:0] Getting Head Bank: 6
 327500: system.cpu.rob: [tid:0] Getting Head Bank: 6
 327500: system.cpu.rob: [tid:0] Checking if head is ready. Head bank: 6 size=3
 327500: system.cpu.rob: [tid:0] Reading Head Instr.
 327500: system.cpu.rob: [tid:0] Getting Head Bank: 6
 327500: system.cpu.rob: [tid:0] Reading Head Instr.
 327500: system.cpu.rob: [tid:0] Getting Head Bank: 6
 328000: system.cpu.rob: [tid:0] Getting Head Bank: 6
 328000: system.cpu.rob: [tid:0] Checking if head is ready. Head bank: 6 size=3
 328000: system.cpu.rob: [tid:0] Reading Head Instr.
 328000: system.cpu.rob: [tid:0] Getting Head Bank: 6
 328000: system.cpu.rob: [tid:0] Reading Head Instr.
 328000: system.cpu.rob: [tid:0] Getting Head Bank: 6
 328500: system.cpu.rob: [tid:0] Getting Head Bank: 6
 328500: system.cpu.rob: [tid:0] Checking if head is ready. Head bank: 6 size=3
 328500: system.cpu.rob: [tid:0] Reading Head Instr.
 328500: system.cpu.rob: [tid:0] Getting Head Bank: 6
 328500: system.cpu.rob: [tid:0] Reading Head Instr.
 328500: system.cpu.rob: [tid:0] Getting Head Bank: 6
 329000: system.cpu.rob: [tid:0] Getting Head Bank: 6
 329000: system.cpu.rob: [tid:0] Checking if head is ready. Head bank: 6 size=3
 329000: system.cpu.rob: [tid:0] Reading Head Instr.
 329000: system.cpu.rob: [tid:0] Getting Head Bank: 6
 329000: system.cpu.rob: [tid:0] Reading Head Instr.
 329000: system.cpu.rob: [tid:0] Getting Head Bank: 6
 329500: system.cpu.rob: [tid:0] Getting Head Bank: 6
 329500: system.cpu.rob: [tid:0] Checking if head is ready. Head bank: 6 size=3
 329500: system.cpu.rob: [tid:0] Reading Head Instr.
 329500: system.cpu.rob: [tid:0] Getting Head Bank: 6
 329500: system.cpu.rob: [tid:0] Reading Head Instr.
 329500: system.cpu.rob: [tid:0] Getting Head Bank: 6
 330000: system.cpu.rob: [tid:0] Getting Head Bank: 6
 330000: system.cpu.rob: [tid:0] Checking if head is ready. Head bank: 6 size=3
 330000: system.cpu.rob: [tid:0] Reading Head Instr.
 330000: system.cpu.rob: [tid:0] Getting Head Bank: 6
 330000: system.cpu.rob: [tid:0] Reading Head Instr.
 330000: system.cpu.rob: [tid:0] Getting Head Bank: 6
 330500: system.cpu.rob: [tid:0] Getting Head Bank: 6
 330500: system.cpu.rob: [tid:0] Checking if head is ready. Head bank: 6 size=3
 330500: system.cpu.rob: [tid:0] Reading Head Instr.
 330500: system.cpu.rob: [tid:0] Getting Head Bank: 6
 330500: system.cpu.rob: [tid:0] Reading Head Instr.
 330500: system.cpu.rob: [tid:0] Getting Head Bank: 6
 331000: system.cpu.rob: [tid:0] Getting Head Bank: 6
 331000: system.cpu.rob: [tid:0] Checking if head is ready. Head bank: 6 size=3
 331000: system.cpu.rob: [tid:0] Reading Head Instr.
 331000: system.cpu.rob: [tid:0] Getting Head Bank: 6
 331000: system.cpu.rob: [tid:0] Reading Head Instr.
 331000: system.cpu.rob: [tid:0] Getting Head Bank: 6
 331500: system.cpu.rob: [tid:0] Getting Head Bank: 6
 331500: system.cpu.rob: [tid:0] Checking if head is ready. Head bank: 6 size=3
 331500: system.cpu.rob: [tid:0] Reading Head Instr.
 331500: system.cpu.rob: [tid:0] Getting Head Bank: 6
 331500: system.cpu.rob: [tid:0] Reading Head Instr.
 331500: system.cpu.rob: [tid:0] Getting Head Bank: 6
 332000: system.cpu.rob: [tid:0] Getting Head Bank: 6
 332000: system.cpu.rob: [tid:0] Checking if head is ready. Head bank: 6 size=3
 332000: system.cpu.rob: [tid:0] Reading Head Instr.
 332000: system.cpu.rob: [tid:0] Getting Head Bank: 6
 332000: system.cpu.rob: [tid:0] Reading Head Instr.
 332000: system.cpu.rob: [tid:0] Getting Head Bank: 6
 332500: system.cpu.rob: [tid:0] Getting Head Bank: 6
 332500: system.cpu.rob: [tid:0] Checking if head is ready. Head bank: 6 size=3
 332500: system.cpu.rob: [tid:0] Reading Head Instr.
 332500: system.cpu.rob: [tid:0] Getting Head Bank: 6
 332500: system.cpu.rob: [tid:0] Reading Head Instr.
 332500: system.cpu.rob: [tid:0] Getting Head Bank: 6
 333000: system.cpu.rob: [tid:0] Getting Head Bank: 6
 333000: system.cpu.rob: [tid:0] Checking if head is ready. Head bank: 6 size=3
 333000: system.cpu.rob: [tid:0] Reading Head Instr.
 333000: system.cpu.rob: [tid:0] Getting Head Bank: 6
 333000: system.cpu.rob: [tid:0] Reading Head Instr.
 333000: system.cpu.rob: [tid:0] Getting Head Bank: 6
 338500: system.cpu.rob: [tid:0] Getting Head Bank: 6
 338500: system.cpu.rob: [tid:0] Checking if head is ready. Head bank: 6 size=3
 338500: system.cpu.rob: [tid:0] Reading Head Instr.
 338500: system.cpu.rob: [tid:0] Getting Head Bank: 6
 338500: system.cpu.rob: [tid:0] Reading Head Instr.
 338500: system.cpu.rob: [tid:0] Getting Head Bank: 6
 339000: system.cpu.rob: [tid:0] Getting Head Bank: 6
 339000: system.cpu.rob: [tid:0] Checking if head is ready. Head bank: 6 size=3
 339000: system.cpu.rob: [tid:0] Reading Head Instr.
 339000: system.cpu.rob: [tid:0] Getting Head Bank: 6
 339000: system.cpu.rob: [tid:0] Reading Head Instr.
 339000: system.cpu.rob: [tid:0] Getting Head Bank: 6
 339500: system.cpu.rob: Starting to squash within the ROB.
 339500: system.cpu.rob: [tid:0] Getting Head Bank: 6
 339500: system.cpu.rob: [tid:0] Getting Tail Bank: 13
 339500: system.cpu.rob: [tid:0] Setting cursors to tails
 339500: system.cpu.rob: [tid:0] squash cursor now pointing to bank: 13
 339500: system.cpu.rob: [tid:0] Setting squash bank iterator with bank: 13
 339500: system.cpu.rob: [tid:0] Squashing instructions until [sn:48].
 339500: system.cpu.rob: [tid:0] Getting Tail Bank: 13
 339500: system.cpu.rob: [tid:0] Getting Head Bank: 6
 339500: system.cpu.rob: [tid:0] Getting Tail Bank: 13
 339500: system.cpu.rob: [tid:0] Squashing instruction PC (0x41857c=>0x418580).(0=>1), seq num 65.
 339500: system.cpu.rob: [tid:0] Decrementing squash cursor
 339500: system.cpu.rob: [tid:0] Decrementing squash bank iterator
 339500: system.cpu.rob: [tid:0] squash cursor now pointing to bank: 12
 339500: system.cpu.rob: [tid:0] Squashing instruction PC (0x418578=>0x41857c).(1=>2), seq num 64.
 339500: system.cpu.rob: [tid:0] Decrementing squash cursor
 339500: system.cpu.rob: [tid:0] Decrementing squash bank iterator
 339500: system.cpu.rob: [tid:0] squash cursor now pointing to bank: 11
 339500: system.cpu.rob: [tid:0] Squashing instruction PC (0x418578=>0x41857c).(0=>1), seq num 63.
 339500: system.cpu.rob: [tid:0] Decrementing squash cursor
 339500: system.cpu.rob: [tid:0] Decrementing squash bank iterator
 339500: system.cpu.rob: [tid:0] squash cursor now pointing to bank: 10
 339500: system.cpu.rob: [tid:0] Squashing instruction PC (0x418574=>0x418578).(0=>1), seq num 62.
 339500: system.cpu.rob: [tid:0] Decrementing squash cursor
 339500: system.cpu.rob: [tid:0] Decrementing squash bank iterator
 339500: system.cpu.rob: [tid:0] squash cursor now pointing to bank: 9
 339500: system.cpu.rob: [tid:0] Squashing instruction PC (0x418570=>0x418574).(0=>1), seq num 61.
 339500: system.cpu.rob: [tid:0] Decrementing squash cursor
 339500: system.cpu.rob: [tid:0] Decrementing squash bank iterator
 339500: system.cpu.rob: [tid:0] squash cursor now pointing to bank: 8
 339500: system.cpu.rob: [tid:0] Squashing instruction PC (0x41856c=>0x418570).(0=>1), seq num 60.
 339500: system.cpu.rob: [tid:0] Decrementing squash cursor
 339500: system.cpu.rob: [tid:0] Decrementing squash bank iterator
 339500: system.cpu.rob: [tid:0] squash cursor now pointing to bank: 7
 339500: system.cpu.rob: [tid:0] Squashing instruction PC (0x418568=>0x41856c).(0=>1), seq num 59.
 339500: system.cpu.rob: [tid:0] Decrementing squash cursor
 339500: system.cpu.rob: [tid:0] Decrementing squash bank iterator
 339500: system.cpu.rob: [tid:0] squash cursor now pointing to bank: 6
 339500: system.cpu.rob: [tid:0] Squashing instruction PC (0x418564=>0x418568).(0=>1), seq num 58.
 339500: system.cpu.rob: [tid:0] Decrementing squash cursor
 339500: system.cpu.rob: [tid:0] Decrementing squash bank iterator
 339500: system.cpu.rob: [tid:0] squash cursor now pointing to bank: 5
 339500: system.cpu.rob: Updating global tail ptr.
 339500: system.cpu.rob: [tid:0] Getting Head Bank: 6
 339500: system.cpu.rob: [tid:0] Getting Tail Bank: 13
 339500: system.cpu.rob: [tid:0] Getting Head Bank: 6
 339500: system.cpu.rob: [tid:0] Getting Tail Bank: 13
 339500: system.cpu.rob: [tid:0] Checking for squash instruction with seq. number: 48
 339500: system.cpu.rob: [tid:0] Getting Head Bank: 6
 339500: system.cpu.rob: [tid:0] Getting Tail Bank: 13
 339500: system.cpu.rob: [tid:0] Setting search bank iterator with bank: 6
 339500: system.cpu.rob: [tid:0] Setting cursors to heads.
 339500: system.cpu.rob: [tid:0] Bank 6 has 3 instructions.
 339500: system.cpu.rob: [tid:0] Incrementing search cursor
 339500: system.cpu.rob: [tid:0] Incrementing search bank iterator
 339500: system.cpu.rob: [tid:0] search cursor now pointing to bank: 7
 339500: system.cpu.rob: [tid:0] Bank 7 has 3 instructions.
 339500: system.cpu.rob: [tid:0] Incrementing search cursor
 339500: system.cpu.rob: [tid:0] Incrementing search bank iterator
 339500: system.cpu.rob: [tid:0] search cursor now pointing to bank: 8
 339500: system.cpu.rob: [tid:0] Bank 8 has 3 instructions.
 339500: system.cpu.rob: [tid:0] Incrementing search cursor
 339500: system.cpu.rob: [tid:0] Incrementing search bank iterator
 339500: system.cpu.rob: [tid:0] search cursor now pointing to bank: 9
 339500: system.cpu.rob: [tid:0] Bank 9 has 3 instructions.
 339500: system.cpu.rob: [tid:0] Incrementing search cursor
 339500: system.cpu.rob: [tid:0] Incrementing search bank iterator
 339500: system.cpu.rob: [tid:0] search cursor now pointing to bank: 10
 339500: system.cpu.rob: [tid:0] Bank 10 has 3 instructions.
 339500: system.cpu.rob: [tid:0] Incrementing search cursor
 339500: system.cpu.rob: [tid:0] Incrementing search bank iterator
 339500: system.cpu.rob: [tid:0] search cursor now pointing to bank: 11
 339500: system.cpu.rob: [tid:0] Bank 11 has 3 instructions.
 339500: system.cpu.rob: [tid:0] Incrementing search cursor
 339500: system.cpu.rob: [tid:0] Incrementing search bank iterator
 339500: system.cpu.rob: [tid:0] search cursor now pointing to bank: 12
 339500: system.cpu.rob: [tid:0] Bank 12 has 3 instructions.
 339500: system.cpu.rob: [tid:0] Incrementing search cursor
 339500: system.cpu.rob: [tid:0] Incrementing search bank iterator
 339500: system.cpu.rob: [tid:0] search cursor now pointing to bank: 13
 339500: system.cpu.rob: [tid:0] Bank 13 has 3 instructions.
 339500: system.cpu.rob: [tid:0] Incrementing search cursor
 339500: system.cpu.rob: [tid:0] Incrementing search bank iterator
 339500: system.cpu.rob: [tid:0] search cursor now pointing to bank: 14
 339500: system.cpu.rob: [tid:0] Bank 14 has 2 instructions.
 339500: system.cpu.rob: [tid:0] Incrementing search cursor
 339500: system.cpu.rob: [tid:0] Incrementing search bank iterator
 339500: system.cpu.rob: [tid:0] search cursor now pointing to bank: 15
 339500: system.cpu.rob: [tid:0] Bank 15 has 2 instructions.
 339500: system.cpu.rob: [tid:0] Incrementing search cursor
 339500: system.cpu.rob: [tid:0] Incrementing search bank iterator
 339500: system.cpu.rob: [tid:0] search cursor now pointing to bank: 0
 339500: system.cpu.rob: [tid:0] Bank 0 has 2 instructions.
 339500: system.cpu.rob: [tid:0] Incrementing search cursor
 339500: system.cpu.rob: [tid:0] Incrementing search bank iterator
 339500: system.cpu.rob: [tid:0] search cursor now pointing to bank: 1
 339500: system.cpu.rob: [tid:0] Bank 1 has 2 instructions.
 339500: system.cpu.rob: [tid:0] Incrementing search cursor
 339500: system.cpu.rob: [tid:0] Incrementing search bank iterator
 339500: system.cpu.rob: [tid:0] search cursor now pointing to bank: 2
 339500: system.cpu.rob: [tid:0] Bank 2 has 2 instructions.
 339500: system.cpu.rob: [tid:0] Incrementing search cursor
 339500: system.cpu.rob: [tid:0] Incrementing search bank iterator
 339500: system.cpu.rob: [tid:0] search cursor now pointing to bank: 3
 339500: system.cpu.rob: [tid:0] Bank 3 has 2 instructions.
 339500: system.cpu.rob: [tid:0] Incrementing search cursor
 339500: system.cpu.rob: [tid:0] Incrementing search bank iterator
 339500: system.cpu.rob: [tid:0] search cursor now pointing to bank: 4
 339500: system.cpu.rob: [tid:0] Bank 4 has 2 instructions.
 339500: system.cpu.rob: [tid:0] Incrementing search cursor
 339500: system.cpu.rob: [tid:0] Incrementing search bank iterator
 339500: system.cpu.rob: [tid:0] search cursor now pointing to bank: 5
 339500: system.cpu.rob: [tid:0] Bank 5 has 2 instructions.
 339500: system.cpu.rob: [tid:0] Incrementing search cursor
 339500: system.cpu.rob: [tid:0] Incrementing search bank iterator
 339500: system.cpu.rob: [tid:0] search cursor now pointing to bank: 6
 339500: system.cpu.rob: [tid:0] Bank 6 has 3 instructions.
 339500: system.cpu.rob: [tid:0] Incrementing search cursor
 339500: system.cpu.rob: [tid:0] Incrementing search bank iterator
 339500: system.cpu.rob: [tid:0] search cursor now pointing to bank: 7
 339500: system.cpu.rob: [tid:0] Bank 7 has 3 instructions.
 339500: system.cpu.rob: [tid:0] Incrementing search cursor
 339500: system.cpu.rob: [tid:0] Incrementing search bank iterator
 339500: system.cpu.rob: [tid:0] search cursor now pointing to bank: 8
 339500: system.cpu.rob: [tid:0] Bank 8 has 3 instructions.
 339500: system.cpu.rob: [tid:0] Incrementing search cursor
 339500: system.cpu.rob: [tid:0] Incrementing search bank iterator
 339500: system.cpu.rob: [tid:0] search cursor now pointing to bank: 9
 339500: system.cpu.rob: [tid:0] Bank 9 has 3 instructions.
 339500: system.cpu.rob: [tid:0] Incrementing search cursor
 339500: system.cpu.rob: [tid:0] Incrementing search bank iterator
 339500: system.cpu.rob: [tid:0] search cursor now pointing to bank: 10
 339500: system.cpu.rob: [tid:0] Bank 10 has 3 instructions.
 339500: system.cpu.rob: [tid:0] Incrementing search cursor
 339500: system.cpu.rob: [tid:0] Incrementing search bank iterator
 339500: system.cpu.rob: [tid:0] search cursor now pointing to bank: 11
 339500: system.cpu.rob: [tid:0] Bank 11 has 3 instructions.
 339500: system.cpu.rob: [tid:0] Incrementing search cursor
 339500: system.cpu.rob: [tid:0] Incrementing search bank iterator
 339500: system.cpu.rob: [tid:0] search cursor now pointing to bank: 12
 339500: system.cpu.rob: [tid:0] Bank 12 has 3 instructions.
 339500: system.cpu.rob: [tid:0] Reading Head Instr.
 339500: system.cpu.rob: [tid:0] Getting Head Bank: 6
 339500: system.cpu.rob: [tid:0] Reading Head Instr.
 339500: system.cpu.rob: [tid:0] Getting Head Bank: 6
 340000: system.cpu.rob: [tid:0] Reading Tail Instr.
 340000: system.cpu.rob: [tid:0] Getting Tail Bank: 13
 340000: system.cpu.rob: [tid:0] Squashing instructions until [sn:48].
 340000: system.cpu.rob: [tid:0] Getting Tail Bank: 13
 340000: system.cpu.rob: [tid:0] Getting Head Bank: 6
 340000: system.cpu.rob: [tid:0] Getting Tail Bank: 13
 340000: system.cpu.rob: [tid:0] Squashing instruction PC (0x418560=>0x418564).(0=>1), seq num 57.
 340000: system.cpu.rob: [tid:0] Decrementing squash cursor
 340000: system.cpu.rob: [tid:0] Decrementing squash bank iterator
 340000: system.cpu.rob: [tid:0] squash cursor now pointing to bank: 4
 340000: system.cpu.rob: [tid:0] Squashing instruction PC (0x41855c=>0x418560).(0=>1), seq num 56.
 340000: system.cpu.rob: [tid:0] Decrementing squash cursor
 340000: system.cpu.rob: [tid:0] Decrementing squash bank iterator
 340000: system.cpu.rob: [tid:0] squash cursor now pointing to bank: 3
 340000: system.cpu.rob: [tid:0] Squashing instruction PC (0x418558=>0x41855c).(0=>1), seq num 55.
 340000: system.cpu.rob: [tid:0] Decrementing squash cursor
 340000: system.cpu.rob: [tid:0] Decrementing squash bank iterator
 340000: system.cpu.rob: [tid:0] squash cursor now pointing to bank: 2
 340000: system.cpu.rob: [tid:0] Squashing instruction PC (0x418554=>0x418558).(0=>1), seq num 54.
 340000: system.cpu.rob: [tid:0] Decrementing squash cursor
 340000: system.cpu.rob: [tid:0] Decrementing squash bank iterator
 340000: system.cpu.rob: [tid:0] squash cursor now pointing to bank: 1
 340000: system.cpu.rob: [tid:0] Squashing instruction PC (0x418550=>0x418554).(0=>1), seq num 53.
 340000: system.cpu.rob: [tid:0] Decrementing squash cursor
 340000: system.cpu.rob: [tid:0] Decrementing squash bank iterator
 340000: system.cpu.rob: [tid:0] squash cursor now pointing to bank: 0
 340000: system.cpu.rob: [tid:0] Squashing instruction PC (0x41854c=>0x418550).(0=>1), seq num 52.
 340000: system.cpu.rob: [tid:0] Decrementing squash cursor
 340000: system.cpu.rob: [tid:0] Decrementing squash bank iterator
 340000: system.cpu.rob: [tid:0] squash cursor now pointing to bank: 15
 340000: system.cpu.rob: [tid:0] Squashing instruction PC (0x418548=>0x41854c).(0=>1), seq num 51.
 340000: system.cpu.rob: [tid:0] Decrementing squash cursor
 340000: system.cpu.rob: [tid:0] Decrementing squash bank iterator
 340000: system.cpu.rob: [tid:0] squash cursor now pointing to bank: 14
 340000: system.cpu.rob: [tid:0] Squashing instruction PC (0x418544=>0x418548).(0=>1), seq num 50.
 340000: system.cpu.rob: [tid:0] Decrementing squash cursor
 340000: system.cpu.rob: [tid:0] Decrementing squash bank iterator
 340000: system.cpu.rob: [tid:0] squash cursor now pointing to bank: 13
 340000: system.cpu.rob: [tid:0] Reading Head Instr.
 340000: system.cpu.rob: [tid:0] Getting Head Bank: 6
 340000: system.cpu.rob: [tid:0] Reading Head Instr.
 340000: system.cpu.rob: [tid:0] Getting Head Bank: 6
 340500: system.cpu.rob: [tid:0] Squashing instructions until [sn:48].
 340500: system.cpu.rob: [tid:0] Getting Tail Bank: 13
 340500: system.cpu.rob: [tid:0] Getting Head Bank: 6
 340500: system.cpu.rob: [tid:0] Getting Tail Bank: 13
 340500: system.cpu.rob: [tid:0] Squashing instruction PC (0x418540=>0x418544).(0=>1), seq num 49.
 340500: system.cpu.rob: [tid:0] Decrementing squash cursor
 340500: system.cpu.rob: [tid:0] Decrementing squash bank iterator
 340500: system.cpu.rob: [tid:0] squash cursor now pointing to bank: 12
 340500: system.cpu.rob: [tid:0] Done squashing instructions.
 340500: system.cpu.rob: [tid:0] Reading Head Instr.
 340500: system.cpu.rob: [tid:0] Getting Head Bank: 6
 340500: system.cpu.rob: [tid:0] Reading Head Instr.
 340500: system.cpu.rob: [tid:0] Getting Head Bank: 6
 341000: system.cpu.rob: [tid:0] Getting Head Bank: 6
 341000: system.cpu.rob: [tid:0] Checking if head is ready. Head bank: 6 size=3
 341000: system.cpu.rob: [tid:0] Reading Head Instr.
 341000: system.cpu.rob: [tid:0] Getting Head Bank: 6
 341000: system.cpu.rob: [tid:0] Getting Head Bank: 6
 341000: system.cpu.rob: [tid:0] Retiring head instruction, instruction PC (0x41850c=>0x418510).(0=>1), [sn:26]
 341000: system.cpu.rob: Updating global head ptr.
 341000: system.cpu.rob: [tid:0] Getting Head Bank: 7
 341000: system.cpu.rob: [tid:0] Getting Tail Bank: 13
 341000: system.cpu.rob: [tid:0] Getting Head Bank: 7
 341000: system.cpu.rob: [tid:0] Checking if head is ready. Head bank: 7 size=3
 341000: system.cpu.rob: [tid:0] Reading Head Instr.
 341000: system.cpu.rob: [tid:0] Getting Head Bank: 7
 341000: system.cpu.rob: [tid:0] Getting Head Bank: 7
 341000: system.cpu.rob: [tid:0] Retiring head instruction, instruction PC (0x418510=>0x418514).(0=>1), [sn:27]
 341000: system.cpu.rob: Updating global head ptr.
 341000: system.cpu.rob: [tid:0] Getting Head Bank: 8
 341000: system.cpu.rob: [tid:0] Getting Tail Bank: 13
 341000: system.cpu.rob: [tid:0] Getting Head Bank: 8
 341000: system.cpu.rob: [tid:0] Checking if head is ready. Head bank: 8 size=3
 341000: system.cpu.rob: [tid:0] Reading Head Instr.
 341000: system.cpu.rob: [tid:0] Getting Head Bank: 8
 341000: system.cpu.rob: [tid:0] Getting Head Bank: 8
 341000: system.cpu.rob: [tid:0] Retiring head instruction, instruction PC (0x418510=>0x418514).(1=>2), [sn:28]
 341000: system.cpu.rob: Updating global head ptr.
 341000: system.cpu.rob: [tid:0] Getting Head Bank: 9
 341000: system.cpu.rob: [tid:0] Getting Tail Bank: 13
 341000: system.cpu.rob: [tid:0] Getting Head Bank: 9
 341000: system.cpu.rob: [tid:0] Checking if head is ready. Head bank: 9 size=3
 341000: system.cpu.rob: [tid:0] Reading Head Instr.
 341000: system.cpu.rob: [tid:0] Getting Head Bank: 9
 341000: system.cpu.rob: [tid:0] Getting Head Bank: 9
 341000: system.cpu.rob: [tid:0] Retiring head instruction, instruction PC (0x418510=>0x418514).(2=>3), [sn:29]
 341000: system.cpu.rob: Updating global head ptr.
 341000: system.cpu.rob: [tid:0] Getting Head Bank: 10
 341000: system.cpu.rob: [tid:0] Getting Tail Bank: 13
 341000: system.cpu.rob: [tid:0] Getting Head Bank: 10
 341000: system.cpu.rob: [tid:0] Checking if head is ready. Head bank: 10 size=3
 341000: system.cpu.rob: [tid:0] Reading Head Instr.
 341000: system.cpu.rob: [tid:0] Getting Head Bank: 10
 341000: system.cpu.rob: [tid:0] Getting Head Bank: 10
 341000: system.cpu.rob: [tid:0] Retiring head instruction, instruction PC (0x418514=>0x418518).(0=>1), [sn:30]
 341000: system.cpu.rob: Updating global head ptr.
 341000: system.cpu.rob: [tid:0] Getting Head Bank: 11
 341000: system.cpu.rob: [tid:0] Getting Tail Bank: 13
 341000: system.cpu.rob: [tid:0] Getting Head Bank: 11
 341000: system.cpu.rob: [tid:0] Checking if head is ready. Head bank: 11 size=3
 341000: system.cpu.rob: [tid:0] Reading Head Instr.
 341000: system.cpu.rob: [tid:0] Getting Head Bank: 11
 341000: system.cpu.rob: [tid:0] Getting Head Bank: 11
 341000: system.cpu.rob: [tid:0] Retiring head instruction, instruction PC (0x418518=>0x41851c).(0=>1), [sn:31]
 341000: system.cpu.rob: Updating global head ptr.
 341000: system.cpu.rob: [tid:0] Getting Head Bank: 12
 341000: system.cpu.rob: [tid:0] Getting Tail Bank: 13
 341000: system.cpu.rob: [tid:0] Getting Head Bank: 12
 341000: system.cpu.rob: [tid:0] Checking if head is ready. Head bank: 12 size=3
 341000: system.cpu.rob: [tid:0] Reading Head Instr.
 341000: system.cpu.rob: [tid:0] Getting Head Bank: 12
 341000: system.cpu.rob: [tid:0] Getting Head Bank: 12
 341000: system.cpu.rob: [tid:0] Retiring head instruction, instruction PC (0x418518=>0x41851c).(1=>2), [sn:32]
 341000: system.cpu.rob: Updating global head ptr.
 341000: system.cpu.rob: [tid:0] Getting Head Bank: 13
 341000: system.cpu.rob: [tid:0] Getting Tail Bank: 13
 341000: system.cpu.rob: [tid:0] Getting Head Bank: 13
 341000: system.cpu.rob: [tid:0] Checking if head is ready. Head bank: 13 size=3
 341000: system.cpu.rob: [tid:0] Reading Head Instr.
 341000: system.cpu.rob: [tid:0] Getting Head Bank: 13
 341000: system.cpu.rob: [tid:0] Getting Head Bank: 13
 341000: system.cpu.rob: [tid:0] Retiring head instruction, instruction PC (0x418518=>0x41851c).(2=>3), [sn:33]
 341000: system.cpu.rob: Updating global head ptr.
 341000: system.cpu.rob: [tid:0] Getting Head Bank: 14
 341000: system.cpu.rob: [tid:0] Getting Tail Bank: 13
 341000: system.cpu.rob: [tid:0] Reading Head Instr.
 341000: system.cpu.rob: [tid:0] Getting Head Bank: 14
 341000: system.cpu.rob: [tid:0] Reading Head Instr.
 341000: system.cpu.rob: [tid:0] Getting Head Bank: 14
 341500: system.cpu.rob: [tid:0] Getting Head Bank: 14
 341500: system.cpu.rob: [tid:0] Checking if head is ready. Head bank: 14 size=2
 341500: system.cpu.rob: [tid:0] Reading Head Instr.
 341500: system.cpu.rob: [tid:0] Getting Head Bank: 14
 341500: system.cpu.rob: [tid:0] Getting Head Bank: 14
 341500: system.cpu.rob: [tid:0] Retiring head instruction, instruction PC (0x41851c=>0x418520).(0=>1), [sn:34]
 341500: system.cpu.rob: Updating global head ptr.
 341500: system.cpu.rob: [tid:0] Getting Head Bank: 15
 341500: system.cpu.rob: [tid:0] Getting Tail Bank: 13
 341500: system.cpu.rob: [tid:0] Getting Head Bank: 15
 341500: system.cpu.rob: [tid:0] Checking if head is ready. Head bank: 15 size=2
 341500: system.cpu.rob: [tid:0] Reading Head Instr.
 341500: system.cpu.rob: [tid:0] Getting Head Bank: 15
 341500: system.cpu.rob: [tid:0] Getting Head Bank: 15
 341500: system.cpu.rob: [tid:0] Retiring head instruction, instruction PC (0x418520=>0x418524).(0=>1), [sn:35]
 341500: system.cpu.rob: Updating global head ptr.
 341500: system.cpu.rob: [tid:0] Getting Head Bank: 0
 341500: system.cpu.rob: [tid:0] Getting Tail Bank: 13
 341500: system.cpu.rob: [tid:0] Getting Head Bank: 0
 341500: system.cpu.rob: [tid:0] Checking if head is ready. Head bank: 0 size=2
 341500: system.cpu.rob: [tid:0] Reading Head Instr.
 341500: system.cpu.rob: [tid:0] Getting Head Bank: 0
 341500: system.cpu.rob: [tid:0] Getting Head Bank: 0
 341500: system.cpu.rob: [tid:0] Retiring head instruction, instruction PC (0x418524=>0x418528).(0=>1), [sn:36]
 341500: system.cpu.rob: Updating global head ptr.
 341500: system.cpu.rob: [tid:0] Getting Head Bank: 1
 341500: system.cpu.rob: [tid:0] Getting Tail Bank: 13
 341500: system.cpu.rob: [tid:0] Getting Head Bank: 1
 341500: system.cpu.rob: [tid:0] Checking if head is ready. Head bank: 1 size=2
 341500: system.cpu.rob: [tid:0] Reading Head Instr.
 341500: system.cpu.rob: [tid:0] Getting Head Bank: 1
 341500: system.cpu.rob: [tid:0] Getting Head Bank: 1
 341500: system.cpu.rob: [tid:0] Retiring head instruction, instruction PC (0x418524=>0x418528).(1=>2), [sn:37]
 341500: system.cpu.rob: Updating global head ptr.
 341500: system.cpu.rob: [tid:0] Getting Head Bank: 2
 341500: system.cpu.rob: [tid:0] Getting Tail Bank: 13
 341500: system.cpu.rob: [tid:0] Getting Head Bank: 2
 341500: system.cpu.rob: [tid:0] Checking if head is ready. Head bank: 2 size=2
 341500: system.cpu.rob: [tid:0] Reading Head Instr.
 341500: system.cpu.rob: [tid:0] Getting Head Bank: 2
 341500: system.cpu.rob: [tid:0] Getting Head Bank: 2
 341500: system.cpu.rob: [tid:0] Retiring head instruction, instruction PC (0x418524=>0x418528).(2=>3), [sn:38]
 341500: system.cpu.rob: Updating global head ptr.
 341500: system.cpu.rob: [tid:0] Getting Head Bank: 3
 341500: system.cpu.rob: [tid:0] Getting Tail Bank: 13
 341500: system.cpu.rob: [tid:0] Getting Head Bank: 3
 341500: system.cpu.rob: [tid:0] Checking if head is ready. Head bank: 3 size=2
 341500: system.cpu.rob: [tid:0] Reading Head Instr.
 341500: system.cpu.rob: [tid:0] Getting Head Bank: 3
 341500: system.cpu.rob: [tid:0] Getting Head Bank: 3
 341500: system.cpu.rob: [tid:0] Retiring head instruction, instruction PC (0x418528=>0x41852c).(0=>1), [sn:39]
 341500: system.cpu.rob: Updating global head ptr.
 341500: system.cpu.rob: [tid:0] Getting Head Bank: 4
 341500: system.cpu.rob: [tid:0] Getting Tail Bank: 13
 341500: system.cpu.rob: [tid:0] Getting Head Bank: 4
 341500: system.cpu.rob: [tid:0] Checking if head is ready. Head bank: 4 size=2
 341500: system.cpu.rob: [tid:0] Reading Head Instr.
 341500: system.cpu.rob: [tid:0] Getting Head Bank: 4
 341500: system.cpu.rob: [tid:0] Getting Head Bank: 4
 341500: system.cpu.rob: [tid:0] Retiring head instruction, instruction PC (0x418528=>0x41852c).(1=>2), [sn:40]
 341500: system.cpu.rob: Updating global head ptr.
 341500: system.cpu.rob: [tid:0] Getting Head Bank: 5
 341500: system.cpu.rob: [tid:0] Getting Tail Bank: 13
 341500: system.cpu.rob: [tid:0] Getting Head Bank: 5
 341500: system.cpu.rob: [tid:0] Checking if head is ready. Head bank: 5 size=2
 341500: system.cpu.rob: [tid:0] Reading Head Instr.
 341500: system.cpu.rob: [tid:0] Getting Head Bank: 5
 341500: system.cpu.rob: [tid:0] Getting Head Bank: 5
 341500: system.cpu.rob: [tid:0] Retiring head instruction, instruction PC (0x418528=>0x41852c).(2=>3), [sn:41]
 341500: system.cpu.rob: Updating global head ptr.
 341500: system.cpu.rob: [tid:0] Getting Head Bank: 6
 341500: system.cpu.rob: [tid:0] Getting Tail Bank: 13
 341500: system.cpu.rob: [tid:0] Reading Head Instr.
 341500: system.cpu.rob: [tid:0] Getting Head Bank: 6
 341500: system.cpu.rob: [tid:0] Reading Head Instr.
 341500: system.cpu.rob: [tid:0] Getting Head Bank: 6
 342000: system.cpu.rob: [tid:0] Getting Head Bank: 6
 342000: system.cpu.rob: [tid:0] Checking if head is ready. Head bank: 6 size=2
 342000: system.cpu.rob: [tid:0] Reading Head Instr.
 342000: system.cpu.rob: [tid:0] Getting Head Bank: 6
 342000: system.cpu.rob: [tid:0] Getting Head Bank: 6
 342000: system.cpu.rob: [tid:0] Retiring head instruction, instruction PC (0x41852c=>0x418530).(0=>1), [sn:42]
 342000: system.cpu.rob: Updating global head ptr.
 342000: system.cpu.rob: [tid:0] Getting Head Bank: 7
 342000: system.cpu.rob: [tid:0] Getting Tail Bank: 13
 342000: system.cpu.rob: [tid:0] Getting Head Bank: 7
 342000: system.cpu.rob: [tid:0] Checking if head is ready. Head bank: 7 size=2
 342000: system.cpu.rob: [tid:0] Reading Head Instr.
 342000: system.cpu.rob: [tid:0] Getting Head Bank: 7
 342000: system.cpu.rob: [tid:0] Getting Head Bank: 7
 342000: system.cpu.rob: [tid:0] Retiring head instruction, instruction PC (0x418530=>0x418534).(0=>1), [sn:43]
 342000: system.cpu.rob: Updating global head ptr.
 342000: system.cpu.rob: [tid:0] Getting Head Bank: 8
 342000: system.cpu.rob: [tid:0] Getting Tail Bank: 13
 342000: system.cpu.rob: [tid:0] Getting Head Bank: 8
 342000: system.cpu.rob: [tid:0] Checking if head is ready. Head bank: 8 size=2
 342000: system.cpu.rob: [tid:0] Reading Head Instr.
 342000: system.cpu.rob: [tid:0] Getting Head Bank: 8
 342000: system.cpu.rob: [tid:0] Getting Head Bank: 8
 342000: system.cpu.rob: [tid:0] Retiring head instruction, instruction PC (0x418534=>0x418538).(0=>1), [sn:44]
 342000: system.cpu.rob: Updating global head ptr.
 342000: system.cpu.rob: [tid:0] Getting Head Bank: 9
 342000: system.cpu.rob: [tid:0] Getting Tail Bank: 13
[...]
1670500: system.cpu.rob: [tid:0] Getting Head Bank: 8
1670500: system.cpu.rob: [tid:0] Checking if head is ready. Head bank: 8 size=1
1670500: system.cpu.rob: [tid:0] Reading Head Instr.
1670500: system.cpu.rob: [tid:0] Getting Head Bank: 8
1670500: system.cpu.rob: [tid:0] Getting Head Bank: 8
1670500: system.cpu.rob: [tid:0] Retiring head instruction, instruction PC (0x43f81c=>0x43f820).(1=>2), [sn:2104]
1670500: system.cpu.rob: Updating global head ptr.
1670500: system.cpu.rob: [tid:0] Getting Head Bank: 9
1670500: system.cpu.rob: [tid:0] Getting Tail Bank: 11
1670500: system.cpu.rob: [tid:0] Getting Head Bank: 9
1670500: system.cpu.rob: [tid:0] Checking if head is ready. Head bank: 9 size=1
1670500: system.cpu.rob: [tid:0] Reading Head Instr.
1670500: system.cpu.rob: [tid:0] Getting Head Bank: 9
1670500: system.cpu.rob: [tid:0] Getting Head Bank: 9
1670500: system.cpu.rob: [tid:0] Retiring head instruction, instruction PC (0x43f820=>0x43f824).(0=>1), [sn:2105]
1670500: system.cpu.rob: Updating global head ptr.
1670500: system.cpu.rob: [tid:0] Getting Head Bank: 10
1670500: system.cpu.rob: [tid:0] Getting Tail Bank: 11
1670500: system.cpu.rob: [tid:0] Getting Head Bank: 10
1670500: system.cpu.rob: [tid:0] Checking if head is ready. Head bank: 10 size=1
1670500: system.cpu.rob: [tid:0] Reading Head Instr.
1670500: system.cpu.rob: [tid:0] Getting Head Bank: 10
1670500: system.cpu.rob: [tid:0] Getting Head Bank: 10
1670500: system.cpu.rob: [tid:0] Retiring head instruction, instruction PC (0x43f820=>0x43f824).(1=>2), [sn:2106]
1670500: system.cpu.rob: Updating global head ptr.
1670500: system.cpu.rob: [tid:0] Getting Head Bank: 11
1670500: system.cpu.rob: [tid:0] Getting Tail Bank: 11
1670500: system.cpu.rob: [tid:0] Getting Head Bank: 11
1670500: system.cpu.rob: [tid:0] Checking if head is ready. Head bank: 11 size=1
1670500: system.cpu.rob: [tid:0] Reading Head Instr.
1670500: system.cpu.rob: [tid:0] Getting Head Bank: 11
1670500: system.cpu.rob: [tid:0] Getting Head Bank: 11
1670500: system.cpu.rob: [tid:0] Retiring head instruction, instruction PC (0x43f824=>0x43f828).(0=>1), [sn:2107]
1670500: system.cpu.rob: Updating global head ptr.
1670500: system.cpu.rob: [tid:0] Getting Head Bank: 0
1670500: system.cpu.rob: [tid:0] Getting Tail Bank: 0
1673000: system.cpu.rob: Adding inst PC (0x43f7c8=>0x43f7cc).(0=>1) to the ROB.
1673000: system.cpu.rob: [tid:0] Now has 1 instructions.
1673000: system.cpu.rob: Adding inst PC (0x43f7cc=>0x43f7d0).(0=>1) to the ROB.
1673000: system.cpu.rob: [tid:0] Getting Tail Bank: 0
1673000: system.cpu.rob: [tid:0] Now has 2 instructions.
1673000: system.cpu.rob: Adding inst PC (0x43f7d0=>0x43f7d4).(0=>1) to the ROB.
1673000: system.cpu.rob: [tid:0] Getting Tail Bank: 1
1673000: system.cpu.rob: [tid:0] Now has 3 instructions.
1673000: system.cpu.rob: Adding inst PC (0x43f7d4=>0x43f7d8).(0=>1) to the ROB.
1673000: system.cpu.rob: [tid:0] Getting Tail Bank: 2
1673000: system.cpu.rob: [tid:0] Now has 4 instructions.
1673000: system.cpu.rob: Adding inst PC (0x43f7d8=>0x43f7dc).(0=>1) to the ROB.
1673000: system.cpu.rob: [tid:0] Getting Tail Bank: 3
1673000: system.cpu.rob: [tid:0] Now has 5 instructions.
1673000: system.cpu.rob: Adding inst PC (0x43f7dc=>0x43f7e0).(0=>1) to the ROB.
1673000: system.cpu.rob: [tid:0] Getting Tail Bank: 4
1673000: system.cpu.rob: [tid:0] Now has 6 instructions.
1673000: system.cpu.rob: Adding inst PC (0x43f7e0=>0x43f7e4).(0=>1) to the ROB.
1673000: system.cpu.rob: [tid:0] Getting Tail Bank: 5
1673000: system.cpu.rob: [tid:0] Now has 7 instructions.
1673000: system.cpu.rob: Adding inst PC (0x43f7e4=>0x43f7e8).(0=>1) to the ROB.
1673000: system.cpu.rob: [tid:0] Getting Tail Bank: 6
1673000: system.cpu.rob: [tid:0] Now has 8 instructions.
1673000: system.cpu.rob: [tid:0] Getting Head Bank: 0
1673000: system.cpu.rob: [tid:0] Checking if head is ready. Head bank: 0 size=1
1673000: system.cpu.rob: [tid:0] Reading Head Instr.
1673000: system.cpu.rob: [tid:0] Getting Head Bank: 0
1673000: system.cpu.rob: [tid:0] Reading Head Instr.
1673000: system.cpu.rob: [tid:0] Getting Head Bank: 0
1673500: system.cpu.rob: [tid:0] Getting Head Bank: 0
1673500: system.cpu.rob: [tid:0] Checking if head is ready. Head bank: 0 size=1
1673500: system.cpu.rob: [tid:0] Reading Head Instr.
1673500: system.cpu.rob: [tid:0] Getting Head Bank: 0
1673500: system.cpu.rob: [tid:0] Reading Head Instr.
1673500: system.cpu.rob: [tid:0] Getting Head Bank: 0
1674000: system.cpu.rob: Adding inst PC (0x43f7e8=>0x43f7ec).(0=>1) to the ROB.
1674000: system.cpu.rob: [tid:0] Getting Tail Bank: 7
1674000: system.cpu.rob: [tid:0] Now has 9 instructions.
1674000: system.cpu.rob: Adding inst PC (0x43f7ec=>0x43f7f0).(0=>1) to the ROB.
1674000: system.cpu.rob: [tid:0] Getting Tail Bank: 8
1674000: system.cpu.rob: [tid:0] Now has 10 instructions.
1674000: system.cpu.rob: Adding inst PC (0x43f7f0=>0x43f7f4).(0=>1) to the ROB.
1674000: system.cpu.rob: [tid:0] Getting Tail Bank: 9
1674000: system.cpu.rob: [tid:0] Now has 11 instructions.
1674000: system.cpu.rob: Adding inst PC (0x43f80c=>0x43f810).(0=>1) to the ROB.
1674000: system.cpu.rob: [tid:0] Getting Tail Bank: 10
1674000: system.cpu.rob: [tid:0] Now has 12 instructions.
1674000: system.cpu.rob: Adding inst PC (0x43f80c=>0x43f810).(1=>2) to the ROB.
1674000: system.cpu.rob: [tid:0] Getting Tail Bank: 11
1674000: system.cpu.rob: [tid:0] Now has 13 instructions.
1674000: system.cpu.rob: Adding inst PC (0x43f810=>0x43f814).(0=>1) to the ROB.
1674000: system.cpu.rob: [tid:0] Getting Tail Bank: 12
1674000: system.cpu.rob: [tid:0] Now has 14 instructions.
1674000: system.cpu.rob: Adding inst PC (0x43f810=>0x43f814).(1=>2) to the ROB.
1674000: system.cpu.rob: [tid:0] Getting Tail Bank: 13
1674000: system.cpu.rob: [tid:0] Now has 15 instructions.
1674000: system.cpu.rob: Adding inst PC (0x43f814=>0x43f818).(0=>1) to the ROB.
1674000: system.cpu.rob: [tid:0] Getting Tail Bank: 14
1674000: system.cpu.rob: [tid:0] Now has 16 instructions.
1674000: system.cpu.rob: [tid:0] Getting Head Bank: 0
1674000: system.cpu.rob: [tid:0] Checking if head is ready. Head bank: 0 size=1
1674000: system.cpu.rob: [tid:0] Reading Head Instr.
1674000: system.cpu.rob: [tid:0] Getting Head Bank: 0
1674000: system.cpu.rob: [tid:0] Reading Head Instr.
1674000: system.cpu.rob: [tid:0] Getting Head Bank: 0
1674500: system.cpu.rob: Adding inst PC (0x43f814=>0x43f818).(1=>2) to the ROB.
1674500: system.cpu.rob: [tid:0] Getting Tail Bank: 15
1674500: system.cpu.rob: [tid:0] Now has 17 instructions.
1674500: system.cpu.rob: Adding inst PC (0x43f818=>0x43f81c).(0=>1) to the ROB.
1674500: system.cpu.rob: [tid:0] Getting Tail Bank: 0
1674500: system.cpu.rob: [tid:0] Now has 18 instructions.
1674500: system.cpu.rob: Adding inst PC (0x43f818=>0x43f81c).(1=>2) to the ROB.
1674500: system.cpu.rob: [tid:0] Getting Tail Bank: 1
1674500: system.cpu.rob: [tid:0] Now has 19 instructions.
1674500: system.cpu.rob: Adding inst PC (0x43f81c=>0x43f820).(0=>1) to the ROB.
1674500: system.cpu.rob: [tid:0] Getting Tail Bank: 2
1674500: system.cpu.rob: [tid:0] Now has 20 instructions.
1674500: system.cpu.rob: Adding inst PC (0x43f81c=>0x43f820).(1=>2) to the ROB.
1674500: system.cpu.rob: [tid:0] Getting Tail Bank: 3
1674500: system.cpu.rob: [tid:0] Now has 21 instructions.
1674500: system.cpu.rob: Adding inst PC (0x43f820=>0x43f824).(0=>1) to the ROB.
1674500: system.cpu.rob: [tid:0] Getting Tail Bank: 4
1674500: system.cpu.rob: [tid:0] Now has 22 instructions.
1674500: system.cpu.rob: Adding inst PC (0x43f820=>0x43f824).(1=>2) to the ROB.
1674500: system.cpu.rob: [tid:0] Getting Tail Bank: 5
1674500: system.cpu.rob: [tid:0] Now has 23 instructions.
1674500: system.cpu.rob: Adding inst PC (0x43f824=>0x43f828).(0=>1) to the ROB.
1674500: system.cpu.rob: [tid:0] Getting Tail Bank: 6
1674500: system.cpu.rob: [tid:0] Now has 24 instructions.
1674500: system.cpu.rob: [tid:0] Getting Head Bank: 0
1674500: system.cpu.rob: [tid:0] Checking if head is ready. Head bank: 0 size=2
1674500: system.cpu.rob: [tid:0] Reading Head Instr.
1674500: system.cpu.rob: [tid:0] Getting Head Bank: 0
1674500: system.cpu.rob: [tid:0] Reading Head Instr.
1674500: system.cpu.rob: [tid:0] Getting Head Bank: 0
1675000: system.cpu.rob: Adding inst PC (0x418584=>0x418588).(0=>1) to the ROB.
1675000: system.cpu.rob: [tid:0] Getting Tail Bank: 7
1675000: system.cpu.rob: [tid:0] Now has 25 instructions.
1675000: system.cpu.rob: Adding inst PC (0x418588=>0x41858c).(0=>1) to the ROB.
1675000: system.cpu.rob: [tid:0] Getting Tail Bank: 8
1675000: system.cpu.rob: [tid:0] Now has 26 instructions.
1675000: system.cpu.rob: Adding inst PC (0x41858c=>0x418590).(0=>1) to the ROB.
1675000: system.cpu.rob: [tid:0] Getting Tail Bank: 9
1675000: system.cpu.rob: [tid:0] Now has 27 instructions.
1675000: system.cpu.rob: Adding inst PC (0x418590=>0x418594).(0=>1) to the ROB.
1675000: system.cpu.rob: [tid:0] Getting Tail Bank: 10
1675000: system.cpu.rob: [tid:0] Now has 28 instructions.
1675000: system.cpu.rob: Adding inst PC (0x418594=>0x418598).(0=>1) to the ROB.
1675000: system.cpu.rob: [tid:0] Getting Tail Bank: 11
1675000: system.cpu.rob: [tid:0] Now has 29 instructions.
1675000: system.cpu.rob: Adding inst PC (0x418598=>0x41859c).(0=>1) to the ROB.
1675000: system.cpu.rob: [tid:0] Getting Tail Bank: 12
1675000: system.cpu.rob: [tid:0] Now has 30 instructions.
1675000: system.cpu.rob: Adding inst PC (0x41859c=>0x4185a0).(0=>1) to the ROB.
1675000: system.cpu.rob: [tid:0] Getting Tail Bank: 13
1675000: system.cpu.rob: [tid:0] Now has 31 instructions.
1675000: system.cpu.rob: [tid:0] Getting Head Bank: 0
1675000: system.cpu.rob: [tid:0] Checking if head is ready. Head bank: 0 size=2
1675000: system.cpu.rob: [tid:0] Reading Head Instr.
1675000: system.cpu.rob: [tid:0] Getting Head Bank: 0
1675000: system.cpu.rob: [tid:0] Reading Head Instr.
1675000: system.cpu.rob: [tid:0] Getting Head Bank: 0
1675500: system.cpu.rob: [tid:0] Getting Head Bank: 0
1675500: system.cpu.rob: [tid:0] Checking if head is ready. Head bank: 0 size=2
1675500: system.cpu.rob: [tid:0] Reading Head Instr.
1675500: system.cpu.rob: [tid:0] Getting Head Bank: 0
1675500: system.cpu.rob: [tid:0] Reading Head Instr.
1675500: system.cpu.rob: [tid:0] Getting Head Bank: 0
1676000: system.cpu.rob: Adding inst PC (0x418698=>0x41869c).(0=>1) to the ROB.
1676000: system.cpu.rob: [tid:0] Getting Tail Bank: 14
1676000: system.cpu.rob: [tid:0] Now has 32 instructions.
1676000: system.cpu.rob: Adding inst PC (0x41869c=>0x4186a0).(0=>1) to the ROB.
1676000: system.cpu.rob: [tid:0] Getting Tail Bank: 15
1676000: system.cpu.rob: [tid:0] Now has 33 instructions.
1676000: system.cpu.rob: Adding inst PC (0x4186a0=>0x4186a4).(0=>1) to the ROB.
1676000: system.cpu.rob: [tid:0] Getting Tail Bank: 0
1676000: system.cpu.rob: [tid:0] Now has 34 instructions.
1676000: system.cpu.rob: Adding inst PC (0x4186a4=>0x4186a8).(0=>1) to the ROB.
1676000: system.cpu.rob: [tid:0] Getting Tail Bank: 1
1676000: system.cpu.rob: [tid:0] Now has 35 instructions.
1676000: system.cpu.rob: Adding inst PC (0x4186a8=>0x4186ac).(0=>1) to the ROB.
1676000: system.cpu.rob: [tid:0] Getting Tail Bank: 2
1676000: system.cpu.rob: [tid:0] Now has 36 instructions.
1676000: system.cpu.rob: Adding inst PC (0x4186ac=>0x4186b0).(0=>1) to the ROB.
1676000: system.cpu.rob: [tid:0] Getting Tail Bank: 3
1676000: system.cpu.rob: [tid:0] Now has 37 instructions.
1676000: system.cpu.rob: Adding inst PC (0x4186b0=>0x4186b4).(0=>1) to the ROB.
1676000: system.cpu.rob: [tid:0] Getting Tail Bank: 4
1676000: system.cpu.rob: [tid:0] Now has 38 instructions.
1676000: system.cpu.rob: Adding inst PC (0x4186b4=>0x4186b8).(0=>1) to the ROB.
1676000: system.cpu.rob: [tid:0] Getting Tail Bank: 5
1676000: system.cpu.rob: [tid:0] Now has 39 instructions.
1676000: system.cpu.rob: [tid:0] Getting Head Bank: 0
1676000: system.cpu.rob: [tid:0] Checking if head is ready. Head bank: 0 size=3
1676000: system.cpu.rob: [tid:0] Reading Head Instr.
1676000: system.cpu.rob: [tid:0] Getting Head Bank: 0
1676000: system.cpu.rob: [tid:0] Getting Head Bank: 0
1676000: system.cpu.rob: [tid:0] Retiring head instruction, instruction PC (0x43f7c8=>0x43f7cc).(0=>1), [sn:2125]
1676000: system.cpu.rob: Updating global head ptr.
1676000: system.cpu.rob: [tid:0] Getting Head Bank: 1
1676000: system.cpu.rob: [tid:0] Getting Tail Bank: 6
1676000: system.cpu.rob: [tid:0] Getting Head Bank: 1
1676000: system.cpu.rob: [tid:0] Checking if head is ready. Head bank: 1 size=3
1676000: system.cpu.rob: [tid:0] Reading Head Instr.
1676000: system.cpu.rob: [tid:0] Getting Head Bank: 1
1676000: system.cpu.rob: [tid:0] Reading Head Instr.
1676000: system.cpu.rob: [tid:0] Getting Head Bank: 1
1676500: system.cpu.rob: Adding inst PC (0x4186b8=>0x4186bc).(0=>1) to the ROB.
1676500: system.cpu.rob: [tid:0] Getting Tail Bank: 6
1676500: system.cpu.rob: [tid:0] Now has 39 instructions.
1676500: system.cpu.rob: Adding inst PC (0x4186bc=>0x4186c0).(0=>1) to the ROB.
1676500: system.cpu.rob: [tid:0] Getting Tail Bank: 7
1676500: system.cpu.rob: [tid:0] Now has 40 instructions.
1676500: system.cpu.rob: [tid:0] Getting Head Bank: 1
1676500: system.cpu.rob: [tid:0] Checking if head is ready. Head bank: 1 size=3
1676500: system.cpu.rob: [tid:0] Reading Head Instr.
1676500: system.cpu.rob: [tid:0] Getting Head Bank: 1
1676500: system.cpu.rob: [tid:0] Getting Head Bank: 1
1676500: system.cpu.rob: [tid:0] Retiring head instruction, instruction PC (0x43f7cc=>0x43f7d0).(0=>1), [sn:2126]
1676500: system.cpu.rob: Updating global head ptr.
1676500: system.cpu.rob: [tid:0] Getting Head Bank: 2
1676500: system.cpu.rob: [tid:0] Getting Tail Bank: 8
1676500: system.cpu.rob: [tid:0] Getting Head Bank: 2
1676500: system.cpu.rob: [tid:0] Checking if head is ready. Head bank: 2 size=3
1676500: system.cpu.rob: [tid:0] Reading Head Instr.
1676500: system.cpu.rob: [tid:0] Getting Head Bank: 2
1676500: system.cpu.rob: [tid:0] Getting Head Bank: 2
1676500: system.cpu.rob: [tid:0] Retiring head instruction, instruction PC (0x43f7d0=>0x43f7d4).(0=>1), [sn:2127]
1676500: system.cpu.rob: Updating global head ptr.
1676500: system.cpu.rob: [tid:0] Getting Head Bank: 3
1676500: system.cpu.rob: [tid:0] Getting Tail Bank: 8
1676500: system.cpu.rob: [tid:0] Getting Head Bank: 3
1676500: system.cpu.rob: [tid:0] Checking if head is ready. Head bank: 3 size=3
1676500: system.cpu.rob: [tid:0] Reading Head Instr.
1676500: system.cpu.rob: [tid:0] Getting Head Bank: 3
1676500: system.cpu.rob: [tid:0] Getting Head Bank: 3
1676500: system.cpu.rob: [tid:0] Retiring head instruction, instruction PC (0x43f7d4=>0x43f7d8).(0=>1), [sn:2128]
1676500: system.cpu.rob: Updating global head ptr.
1676500: system.cpu.rob: [tid:0] Getting Head Bank: 4
1676500: system.cpu.rob: [tid:0] Getting Tail Bank: 8
1676500: system.cpu.rob: [tid:0] Getting Head Bank: 4
1676500: system.cpu.rob: [tid:0] Checking if head is ready. Head bank: 4 size=3
1676500: system.cpu.rob: [tid:0] Reading Head Instr.
1676500: system.cpu.rob: [tid:0] Getting Head Bank: 4
1676500: system.cpu.rob: [tid:0] Reading Head Instr.
1676500: system.cpu.rob: [tid:0] Getting Head Bank: 4
1677000: system.cpu.rob: [tid:0] Getting Head Bank: 4
1677000: system.cpu.rob: [tid:0] Checking if head is ready. Head bank: 4 size=3
1677000: system.cpu.rob: [tid:0] Reading Head Instr.
1677000: system.cpu.rob: [tid:0] Getting Head Bank: 4
1677000: system.cpu.rob: [tid:0] Getting Head Bank: 4
1677000: system.cpu.rob: [tid:0] Retiring head instruction, instruction PC (0x43f7d8=>0x43f7dc).(0=>1), [sn:2129]
1677000: system.cpu.rob: Updating global head ptr.
1677000: system.cpu.rob: [tid:0] Getting Head Bank: 5
1677000: system.cpu.rob: [tid:0] Getting Tail Bank: 8
1677000: system.cpu.rob: [tid:0] Getting Head Bank: 5
1677000: system.cpu.rob: [tid:0] Checking if head is ready. Head bank: 5 size=3
1677000: system.cpu.rob: [tid:0] Reading Head Instr.
1677000: system.cpu.rob: [tid:0] Getting Head Bank: 5
1677000: system.cpu.rob: [tid:0] Getting Head Bank: 5
1677000: system.cpu.rob: [tid:0] Retiring head instruction, instruction PC (0x43f7dc=>0x43f7e0).(0=>1), [sn:2130]
1677000: system.cpu.rob: Updating global head ptr.
1677000: system.cpu.rob: [tid:0] Getting Head Bank: 6
1677000: system.cpu.rob: [tid:0] Getting Tail Bank: 8
1677000: system.cpu.rob: [tid:0] Getting Head Bank: 6
1677000: system.cpu.rob: [tid:0] Checking if head is ready. Head bank: 6 size=3
1677000: system.cpu.rob: [tid:0] Reading Head Instr.
1677000: system.cpu.rob: [tid:0] Getting Head Bank: 6
1677000: system.cpu.rob: [tid:0] Getting Head Bank: 6
1677000: system.cpu.rob: [tid:0] Retiring head instruction, instruction PC (0x43f7e0=>0x43f7e4).(0=>1), [sn:2131]
1677000: system.cpu.rob: Updating global head ptr.
1677000: system.cpu.rob: [tid:0] Getting Head Bank: 7
1677000: system.cpu.rob: [tid:0] Getting Tail Bank: 8
1677000: system.cpu.rob: [tid:0] Getting Head Bank: 7
1677000: system.cpu.rob: [tid:0] Checking if head is ready. Head bank: 7 size=3
1677000: system.cpu.rob: [tid:0] Reading Head Instr.
1677000: system.cpu.rob: [tid:0] Getting Head Bank: 7
1677000: system.cpu.rob: [tid:0] Getting Head Bank: 7
1677000: system.cpu.rob: [tid:0] Retiring head instruction, instruction PC (0x43f7e4=>0x43f7e8).(0=>1), [sn:2132]
1677000: system.cpu.rob: Updating global head ptr.
1677000: system.cpu.rob: [tid:0] Getting Head Bank: 8
1677000: system.cpu.rob: [tid:0] Getting Tail Bank: 8
1677000: system.cpu.rob: [tid:0] Getting Head Bank: 8
1677000: system.cpu.rob: [tid:0] Checking if head is ready. Head bank: 8 size=3
1677000: system.cpu.rob: [tid:0] Reading Head Instr.
1677000: system.cpu.rob: [tid:0] Getting Head Bank: 8
1677000: system.cpu.rob: [tid:0] Getting Head Bank: 8
1677000: system.cpu.rob: [tid:0] Retiring head instruction, instruction PC (0x43f7e8=>0x43f7ec).(0=>1), [sn:2133]
1677000: system.cpu.rob: Updating global head ptr.
1677000: system.cpu.rob: [tid:0] Getting Head Bank: 9
1677000: system.cpu.rob: [tid:0] Getting Tail Bank: 8
1677000: system.cpu.rob: [tid:0] Getting Head Bank: 9
1677000: system.cpu.rob: [tid:0] Checking if head is ready. Head bank: 9 size=2
1677000: system.cpu.rob: [tid:0] Reading Head Instr.
1677000: system.cpu.rob: [tid:0] Getting Head Bank: 9
1677000: system.cpu.rob: [tid:0] Getting Head Bank: 9
1677000: system.cpu.rob: [tid:0] Retiring head instruction, instruction PC (0x43f7ec=>0x43f7f0).(0=>1), [sn:2134]
1677000: system.cpu.rob: Updating global head ptr.
1677000: system.cpu.rob: [tid:0] Getting Head Bank: 10
1677000: system.cpu.rob: [tid:0] Getting Tail Bank: 8
1677000: system.cpu.rob: [tid:0] Getting Head Bank: 10
1677000: system.cpu.rob: [tid:0] Checking if head is ready. Head bank: 10 size=2
1677000: system.cpu.rob: [tid:0] Reading Head Instr.
1677000: system.cpu.rob: [tid:0] Getting Head Bank: 10
1677000: system.cpu.rob: [tid:0] Getting Head Bank: 10
1677000: system.cpu.rob: [tid:0] Retiring head instruction, instruction PC (0x43f7f0=>0x43f80c).(0=>1), [sn:2135]
1677000: system.cpu.rob: Updating global head ptr.
1677000: system.cpu.rob: [tid:0] Getting Head Bank: 11
1677000: system.cpu.rob: [tid:0] Getting Tail Bank: 8
1677000: system.cpu.rob: [tid:0] Getting Head Bank: 11
1677000: system.cpu.rob: [tid:0] Checking if head is ready. Head bank: 11 size=2
1677000: system.cpu.rob: [tid:0] Reading Head Instr.
1677000: system.cpu.rob: [tid:0] Getting Head Bank: 11
1677000: system.cpu.rob: [tid:0] Getting Head Bank: 11
1677000: system.cpu.rob: [tid:0] Retiring head instruction, instruction PC (0x43f80c=>0x43f810).(0=>1), [sn:2136]
1677000: system.cpu.rob: Updating global head ptr.
1677000: system.cpu.rob: [tid:0] Getting Head Bank: 12
1677000: system.cpu.rob: [tid:0] Getting Tail Bank: 8
1677000: system.cpu.rob: [tid:0] Reading Head Instr.
1677000: system.cpu.rob: [tid:0] Getting Head Bank: 12
1677000: system.cpu.rob: [tid:0] Reading Head Instr.
1677000: system.cpu.rob: [tid:0] Getting Head Bank: 12
Exiting @ tick 1677000 because user interrupt received
