Global frequency set at 1000000000000 ticks per second
      0: system.cpu.rob: Created ROB
      0: system.cpu.rob: Reseting state.
      0: global: RegFile: Setting int register 38 to 0x7ffffefda0
      0: global: RegFile: Setting int register 0 to 0
      0: global: RegFile: Setting int register 1 to 0x7ffffeff5a
      0: global: RegFile: Setting int register 2 to 0
      0: system.cpu.rob: Setting active threads list pointer.
gem5 Simulator System.  https://www.gem5.org
gem5 is copyrighted software; use the --copyright option for details.

gem5 version 22.0.0.2
gem5 compiled Nov 19 2025 11:46:32
gem5 started Nov 19 2025 11:48:32
gem5 executing on ececomp1.ecn.purdue.edu, pid 1895218
command line: ./build/ECE565-ARM/gem5.opt --debug-flags=ROB,IEW configs/spec/spec_se.py --cpu-type=ArmO3CPU --maxinsts=1000000 --l1d_size=64kB --l1i_size=16kB --caches --l2cache -b sjeng

**** REAL SIMULATION ****
      0: system.cpu.iew: Issue: Processing [tid:0]
      0: system.cpu.iew: [tid:0] Not blocked, so attempting to run dispatch.
      0: system.cpu.iew: [tid:0] Getting list of reinsertion ready instructions from WIB
      0: system.cpu.iew: [tid:0] There are 0 reinsertion ready instructions from WIB
      0: system.cpu.iew: Processing [tid:0]
      0: system.cpu.iew: [tid:0], Dispatch dispatched 0 instructions.
      0: system.cpu.iew: IQ has 64 free entries (Can schedule: 0).  LQ has 32 free entries. SQ has 32 free entries.
      0: system.cpu.iew: IEW switching to idle
      0: system.cpu.rob: Does not need to squash due to being empty [sn:0]
    500: system.cpu.iew: Issue: Processing [tid:0]
    500: system.cpu.iew: [tid:0] Squashing all instructions.
    500: system.cpu.iew: Removing skidbuffer instructions until [sn:0] [tid:0]
    500: system.cpu.iew: [tid:0] Removing incoming rename instructions
    500: system.cpu.iew: Processing [tid:0]
    500: system.cpu.iew: [tid:0], Dispatch dispatched 0 instructions.
    500: system.cpu.iew: IQ has 64 free entries (Can schedule: 0).  LQ has 32 free entries. SQ has 32 free entries.
   1000: system.cpu.iew: Issue: Processing [tid:0]
   1000: system.cpu.iew: [tid:0] Done squashing, switching to running.
   1000: system.cpu.iew: [tid:0] Not blocked, so attempting to run dispatch.
   1000: system.cpu.iew: [tid:0] Getting list of reinsertion ready instructions from WIB
   1000: system.cpu.iew: [tid:0] There are 0 reinsertion ready instructions from WIB
   1000: system.cpu.iew: Processing [tid:0]
   1000: system.cpu.iew: [tid:0], Dispatch dispatched 0 instructions.
   1000: system.cpu.iew: IQ has 64 free entries (Can schedule: 0).  LQ has 32 free entries. SQ has 32 free entries.
   1500: system.cpu.iew: Issue: Processing [tid:0]
   1500: system.cpu.iew: [tid:0] Not blocked, so attempting to run dispatch.
   1500: system.cpu.iew: [tid:0] Getting list of reinsertion ready instructions from WIB
   1500: system.cpu.iew: [tid:0] There are 0 reinsertion ready instructions from WIB
   1500: system.cpu.iew: Processing [tid:0]
   1500: system.cpu.iew: [tid:0], Dispatch dispatched 0 instructions.
   1500: system.cpu.iew: IQ has 64 free entries (Can schedule: 0).  LQ has 32 free entries. SQ has 32 free entries.
   2000: system.cpu.iew: Issue: Processing [tid:0]
   2000: system.cpu.iew: [tid:0] Not blocked, so attempting to run dispatch.
   2000: system.cpu.iew: [tid:0] Getting list of reinsertion ready instructions from WIB
   2000: system.cpu.iew: [tid:0] There are 0 reinsertion ready instructions from WIB
   2000: system.cpu.iew: Processing [tid:0]
   2000: system.cpu.iew: [tid:0], Dispatch dispatched 0 instructions.
   2000: system.cpu.iew: IQ has 64 free entries (Can schedule: 0).  LQ has 32 free entries. SQ has 32 free entries.
   2500: system.cpu.iew: Issue: Processing [tid:0]
   2500: system.cpu.iew: [tid:0] Not blocked, so attempting to run dispatch.
   2500: system.cpu.iew: [tid:0] Getting list of reinsertion ready instructions from WIB
   2500: system.cpu.iew: [tid:0] There are 0 reinsertion ready instructions from WIB
   2500: system.cpu.iew: Processing [tid:0]
   2500: system.cpu.iew: [tid:0], Dispatch dispatched 0 instructions.
   2500: system.cpu.iew: IQ has 64 free entries (Can schedule: 0).  LQ has 32 free entries. SQ has 32 free entries.
   3000: system.cpu.iew: Issue: Processing [tid:0]
   3000: system.cpu.iew: [tid:0] Not blocked, so attempting to run dispatch.
   3000: system.cpu.iew: [tid:0] Getting list of reinsertion ready instructions from WIB
   3000: system.cpu.iew: [tid:0] There are 0 reinsertion ready instructions from WIB
   3000: system.cpu.iew: Processing [tid:0]
   3000: system.cpu.iew: [tid:0], Dispatch dispatched 0 instructions.
   3000: system.cpu.iew: IQ has 64 free entries (Can schedule: 0).  LQ has 32 free entries. SQ has 32 free entries.
   3500: system.cpu.iew: Issue: Processing [tid:0]
   3500: system.cpu.iew: [tid:0] Not blocked, so attempting to run dispatch.
   3500: system.cpu.iew: [tid:0] Getting list of reinsertion ready instructions from WIB
   3500: system.cpu.iew: [tid:0] There are 0 reinsertion ready instructions from WIB
   3500: system.cpu.iew: Processing [tid:0]
   3500: system.cpu.iew: [tid:0], Dispatch dispatched 0 instructions.
   3500: system.cpu.iew: IQ has 64 free entries (Can schedule: 0).  LQ has 32 free entries. SQ has 32 free entries.
   4000: system.cpu.iew: Issue: Processing [tid:0]
   4000: system.cpu.iew: [tid:0] Not blocked, so attempting to run dispatch.
   4000: system.cpu.iew: [tid:0] Getting list of reinsertion ready instructions from WIB
   4000: system.cpu.iew: [tid:0] There are 0 reinsertion ready instructions from WIB
   4000: system.cpu.iew: Processing [tid:0]
   4000: system.cpu.iew: [tid:0], Dispatch dispatched 0 instructions.
   4000: system.cpu.iew: IQ has 64 free entries (Can schedule: 0).  LQ has 32 free entries. SQ has 32 free entries.
   4500: system.cpu.iew: Issue: Processing [tid:0]
   4500: system.cpu.iew: [tid:0] Not blocked, so attempting to run dispatch.
   4500: system.cpu.iew: [tid:0] Getting list of reinsertion ready instructions from WIB
   4500: system.cpu.iew: [tid:0] There are 0 reinsertion ready instructions from WIB
   4500: system.cpu.iew: Processing [tid:0]
   4500: system.cpu.iew: [tid:0], Dispatch dispatched 0 instructions.
   4500: system.cpu.iew: IQ has 64 free entries (Can schedule: 0).  LQ has 32 free entries. SQ has 32 free entries.
   5000: system.cpu.iew: Issue: Processing [tid:0]
   5000: system.cpu.iew: [tid:0] Not blocked, so attempting to run dispatch.
   5000: system.cpu.iew: [tid:0] Getting list of reinsertion ready instructions from WIB
   5000: system.cpu.iew: [tid:0] There are 0 reinsertion ready instructions from WIB
   5000: system.cpu.iew: Processing [tid:0]
   5000: system.cpu.iew: [tid:0], Dispatch dispatched 0 instructions.
   5000: system.cpu.iew: IQ has 64 free entries (Can schedule: 0).  LQ has 32 free entries. SQ has 32 free entries.
   5500: system.cpu.iew: Issue: Processing [tid:0]
   5500: system.cpu.iew: [tid:0] Not blocked, so attempting to run dispatch.
   5500: system.cpu.iew: [tid:0] Getting list of reinsertion ready instructions from WIB
   5500: system.cpu.iew: [tid:0] There are 0 reinsertion ready instructions from WIB
   5500: system.cpu.iew: Processing [tid:0]
   5500: system.cpu.iew: [tid:0], Dispatch dispatched 0 instructions.
   5500: system.cpu.iew: IQ has 64 free entries (Can schedule: 0).  LQ has 32 free entries. SQ has 32 free entries.
  89000: system.cpu.iew: Issue: Processing [tid:0]
  89000: system.cpu.iew: [tid:0] Not blocked, so attempting to run dispatch.
  89000: system.cpu.iew: [tid:0] Getting list of reinsertion ready instructions from WIB
  89000: system.cpu.iew: [tid:0] There are 0 reinsertion ready instructions from WIB
  89000: system.cpu.iew: Processing [tid:0]
  89000: system.cpu.iew: [tid:0], Dispatch dispatched 0 instructions.
  89000: system.cpu.iew: IQ has 64 free entries (Can schedule: 0).  LQ has 32 free entries. SQ has 32 free entries.
  89500: system.cpu.iew: Issue: Processing [tid:0]
  89500: system.cpu.iew: [tid:0] Not blocked, so attempting to run dispatch.
  89500: system.cpu.iew: [tid:0] Getting list of reinsertion ready instructions from WIB
  89500: system.cpu.iew: [tid:0] There are 0 reinsertion ready instructions from WIB
  89500: system.cpu.iew: Processing [tid:0]
  89500: system.cpu.iew: [tid:0], Dispatch dispatched 0 instructions.
  89500: system.cpu.iew: IQ has 64 free entries (Can schedule: 0).  LQ has 32 free entries. SQ has 32 free entries.
  90000: system.cpu.iew: Issue: Processing [tid:0]
  90000: system.cpu.iew: [tid:0] Not blocked, so attempting to run dispatch.
  90000: system.cpu.iew: [tid:0] Getting list of reinsertion ready instructions from WIB
  90000: system.cpu.iew: [tid:0] There are 0 reinsertion ready instructions from WIB
  90000: system.cpu.iew: Processing [tid:0]
  90000: system.cpu.iew: [tid:0], Dispatch dispatched 0 instructions.
  90000: system.cpu.iew: IQ has 64 free entries (Can schedule: 0).  LQ has 32 free entries. SQ has 32 free entries.
  90500: system.cpu.iew: Issue: Processing [tid:0]
  90500: system.cpu.iew: [tid:0] Not blocked, so attempting to run dispatch.
  90500: system.cpu.iew: [tid:0] Getting list of reinsertion ready instructions from WIB
  90500: system.cpu.iew: [tid:0] There are 0 reinsertion ready instructions from WIB
  90500: system.cpu.iew: Processing [tid:0]
  90500: system.cpu.iew: [tid:0], Dispatch dispatched 0 instructions.
  90500: system.cpu.iew: IQ has 64 free entries (Can schedule: 0).  LQ has 32 free entries. SQ has 32 free entries.
  90500: system.cpu.rob: Adding inst PC (0x401ef4=>0x401ef8).(0=>1) to the ROB.
  90500: system.cpu.rob: [tid:0] Now has 1 instructions.
  90500: system.cpu.rob: Adding inst PC (0x401ef8=>0x401efc).(0=>1) to the ROB.
  90500: system.cpu.rob: [tid:0] Now has 2 instructions.
  90500: system.cpu.rob: Adding inst PC (0x401efc=>0x401f00).(0=>1) to the ROB.
  90500: system.cpu.rob: [tid:0] Now has 3 instructions.
  90500: system.cpu.rob: [tid:0] Checking if head is ready. ROB size=3
. HEAD SN=1  90500: system.cpu.rob: [tid:0] Reading Head Instr.
  90500: system.cpu.rob: [tid:0] Reading Head Instr.
  91000: system.cpu.iew: Issue: Processing [tid:0]
  91000: system.cpu.iew: [tid:0] Not blocked, so attempting to run dispatch.
  91000: system.cpu.iew: [tid:0] Getting list of reinsertion ready instructions from WIB
  91000: system.cpu.iew: [tid:0] There are 0 reinsertion ready instructions from WIB
  91000: system.cpu.iew: [tid:0] Issue: Adding PC (0x401ef4=>0x401ef8).(0=>1) [sn:1] [tid:0] to IQ.
  91000: system.cpu.iew: [tid:0] Issue: Adding PC (0x401ef8=>0x401efc).(0=>1) [sn:2] [tid:0] to IQ.
  91000: system.cpu.iew: [tid:0] Issue: Adding PC (0x401efc=>0x401f00).(0=>1) [sn:3] [tid:0] to IQ.
  91000: system.cpu.iew: Processing [tid:0]
  91000: system.cpu.iew: [tid:0], Dispatch dispatched 3 instructions.
  91000: system.cpu.iew: IQ has 64 free entries (Can schedule: 0).  LQ has 32 free entries. SQ has 32 free entries.
  91000: system.cpu.rob: [tid:0] Checking if head is ready. ROB size=3
. HEAD SN=1  91000: system.cpu.rob: [tid:0] Reading Head Instr.
  91000: system.cpu.rob: [tid:0] Reading Head Instr.
  91500: system.cpu.iew: Issue: Processing [tid:0]
  91500: system.cpu.iew: [tid:0] Not blocked, so attempting to run dispatch.
  91500: system.cpu.iew: [tid:0] Getting list of reinsertion ready instructions from WIB
  91500: system.cpu.iew: [tid:0] There are 0 reinsertion ready instructions from WIB
  91500: system.cpu.iew: Execute: Executing instructions from IQ.
  91500: system.cpu.iew: Execute: Processing PC (0x401ef4=>0x401ef8).(0=>1), [tid:0] [sn:1].
  91500: global: RegFile: Setting int register 42 to 0
  91500: system.cpu.iew: Current wb cycle: 0, width: 8, numInst: 0
wbActual:0
  91500: system.cpu.iew: Execute: Executing instructions from IQ.
  91500: system.cpu.iew: Execute: Processing PC (0x401ef8=>0x401efc).(0=>1), [tid:0] [sn:2].
  91500: global: RegFile: Setting int register 43 to 0
  91500: system.cpu.iew: Current wb cycle: 0, width: 8, numInst: 1
wbActual:1
  91500: system.cpu.iew: Execute: Executing instructions from IQ.
  91500: system.cpu.iew: Execute: Processing PC (0x401efc=>0x401f00).(0=>1), [tid:0] [sn:3].
  91500: global: RegFile: Access to int register 0, has data 0
  91500: global: RegFile: Setting int register 44 to 0
  91500: system.cpu.iew: Current wb cycle: 0, width: 8, numInst: 2
wbActual:2
  91500: system.cpu.iew: Sending instructions to commit, [sn:1] PC (0x401ef4=>0x401ef8).(0=>1).
  91500: system.cpu.iew: Setting Destination Register 42 (IntRegClass)
  91500: system.cpu.iew: Sending instructions to commit, [sn:2] PC (0x401ef8=>0x401efc).(0=>1).
  91500: system.cpu.iew: Setting Destination Register 43 (IntRegClass)
  91500: system.cpu.iew: Sending instructions to commit, [sn:3] PC (0x401efc=>0x401f00).(0=>1).
  91500: system.cpu.iew: Setting Destination Register 44 (IntRegClass)
  91500: system.cpu.iew: Processing [tid:0]
  91500: system.cpu.iew: [tid:0], Dispatch dispatched 0 instructions.
  91500: system.cpu.iew: IQ has 64 free entries (Can schedule: 0).  LQ has 32 free entries. SQ has 32 free entries.
  91500: system.cpu.rob: [tid:0] Checking if head is ready. ROB size=3
. HEAD SN=1  91500: system.cpu.rob: [tid:0] Reading Head Instr.
  91500: system.cpu.rob: [tid:0] Reading Head Instr.
  92000: system.cpu.iew: Issue: Processing [tid:0]
  92000: system.cpu.iew: [tid:0] Not blocked, so attempting to run dispatch.
  92000: system.cpu.iew: [tid:0] Getting list of reinsertion ready instructions from WIB
  92000: system.cpu.iew: [tid:0] There are 0 reinsertion ready instructions from WIB
  92000: system.cpu.iew: Processing [tid:0]
  92000: system.cpu.iew: [tid:0], Dispatch dispatched 0 instructions.
  92000: system.cpu.iew: IQ has 64 free entries (Can schedule: 0).  LQ has 32 free entries. SQ has 32 free entries.
  92000: system.cpu.rob: [tid:0] Checking if head is ready. ROB size=3
. HEAD SN=1  92000: system.cpu.rob: [tid:0] Reading Head Instr.
  92000: system.cpu.rob: [tid:0] Reading Head Instr.
  92500: system.cpu.iew: Issue: Processing [tid:0]
  92500: system.cpu.iew: [tid:0] Not blocked, so attempting to run dispatch.
  92500: system.cpu.iew: [tid:0] Getting list of reinsertion ready instructions from WIB
  92500: system.cpu.iew: [tid:0] There are 0 reinsertion ready instructions from WIB
  92500: system.cpu.iew: Processing [tid:0]
  92500: system.cpu.iew: [tid:0], Dispatch dispatched 0 instructions.
  92500: system.cpu.iew: IQ has 64 free entries (Can schedule: 0).  LQ has 32 free entries. SQ has 32 free entries.
  92500: system.cpu.rob: [tid:0] Checking if head is ready. ROB size=3
. HEAD SN=1  92500: system.cpu.rob: [tid:0] Reading Head Instr.
  92500: system.cpu.rob: [tid:0] Retiring head instruction, instruction PC (0x401ef4=>0x401ef8).(0=>1), [sn:1]
  92500: system.cpu.rob: Updating global head ptr.
  92500: system.cpu.rob: [tid:0] Checking if head is ready. ROB size=2
. HEAD SN=2  92500: system.cpu.rob: [tid:0] Reading Head Instr.
  92500: system.cpu.rob: [tid:0] Retiring head instruction, instruction PC (0x401ef8=>0x401efc).(0=>1), [sn:2]
  92500: system.cpu.rob: Updating global head ptr.
  92500: system.cpu.rob: [tid:0] Checking if head is ready. ROB size=1
. HEAD SN=3  92500: system.cpu.rob: [tid:0] Reading Head Instr.
  92500: system.cpu.rob: [tid:0] Retiring head instruction, instruction PC (0x401efc=>0x401f00).(0=>1), [sn:3]
  92500: system.cpu.rob: Updating global head ptr.
  93000: system.cpu.iew: Issue: Processing [tid:0]
  93000: system.cpu.iew: [tid:0] Not blocked, so attempting to run dispatch.
  93000: system.cpu.iew: [tid:0] Getting list of reinsertion ready instructions from WIB
  93000: system.cpu.iew: [tid:0] There are 0 reinsertion ready instructions from WIB
  93000: system.cpu.iew: Processing [tid:0]
  93000: system.cpu.iew: [tid:0], Dispatch dispatched 0 instructions.
  93000: system.cpu.iew: IQ has 64 free entries (Can schedule: 0).  LQ has 32 free entries. SQ has 32 free entries.
  93500: system.cpu.iew: Issue: Processing [tid:0]
  93500: system.cpu.iew: [tid:0] Not blocked, so attempting to run dispatch.
  93500: system.cpu.iew: [tid:0] Getting list of reinsertion ready instructions from WIB
  93500: system.cpu.iew: [tid:0] There are 0 reinsertion ready instructions from WIB
  93500: system.cpu.iew: Processing [tid:0]
  93500: system.cpu.iew: [tid:0], Dispatch dispatched 0 instructions.
  93500: system.cpu.iew: IQ has 64 free entries (Can schedule: 0).  LQ has 32 free entries. SQ has 32 free entries.
  94000: system.cpu.iew: Issue: Processing [tid:0]
  94000: system.cpu.iew: [tid:0] Not blocked, so attempting to run dispatch.
  94000: system.cpu.iew: [tid:0] Getting list of reinsertion ready instructions from WIB
  94000: system.cpu.iew: [tid:0] There are 0 reinsertion ready instructions from WIB
  94000: system.cpu.iew: Processing [tid:0]
  94000: system.cpu.iew: [tid:0], Dispatch dispatched 0 instructions.
  94000: system.cpu.iew: IQ has 64 free entries (Can schedule: 0).  LQ has 32 free entries. SQ has 32 free entries.
  94500: system.cpu.iew: Issue: Processing [tid:0]
  94500: system.cpu.iew: [tid:0] Not blocked, so attempting to run dispatch.
  94500: system.cpu.iew: [tid:0] Getting list of reinsertion ready instructions from WIB
  94500: system.cpu.iew: [tid:0] There are 0 reinsertion ready instructions from WIB
  94500: system.cpu.iew: Processing [tid:0]
  94500: system.cpu.iew: [tid:0], Dispatch dispatched 0 instructions.
  94500: system.cpu.iew: IQ has 64 free entries (Can schedule: 0).  LQ has 32 free entries. SQ has 32 free entries.
  95000: system.cpu.iew: Issue: Processing [tid:0]
  95000: system.cpu.iew: [tid:0] Not blocked, so attempting to run dispatch.
  95000: system.cpu.iew: [tid:0] Getting list of reinsertion ready instructions from WIB
  95000: system.cpu.iew: [tid:0] There are 0 reinsertion ready instructions from WIB
  95000: system.cpu.iew: Processing [tid:0]
  95000: system.cpu.iew: [tid:0], Dispatch dispatched 0 instructions.
  95000: system.cpu.iew: IQ has 64 free entries (Can schedule: 0).  LQ has 32 free entries. SQ has 32 free entries.
  95500: system.cpu.iew: Issue: Processing [tid:0]
  95500: system.cpu.iew: [tid:0] Not blocked, so attempting to run dispatch.
  95500: system.cpu.iew: [tid:0] Getting list of reinsertion ready instructions from WIB
  95500: system.cpu.iew: [tid:0] There are 0 reinsertion ready instructions from WIB
  95500: system.cpu.iew: Processing [tid:0]
  95500: system.cpu.iew: [tid:0], Dispatch dispatched 0 instructions.
  95500: system.cpu.iew: IQ has 64 free entries (Can schedule: 0).  LQ has 32 free entries. SQ has 32 free entries.
  96000: system.cpu.iew: Issue: Processing [tid:0]
  96000: system.cpu.iew: [tid:0] Not blocked, so attempting to run dispatch.
  96000: system.cpu.iew: [tid:0] Getting list of reinsertion ready instructions from WIB
  96000: system.cpu.iew: [tid:0] There are 0 reinsertion ready instructions from WIB
  96000: system.cpu.iew: Processing [tid:0]
  96000: system.cpu.iew: [tid:0], Dispatch dispatched 0 instructions.
  96000: system.cpu.iew: IQ has 64 free entries (Can schedule: 0).  LQ has 32 free entries. SQ has 32 free entries.
  96500: system.cpu.iew: Issue: Processing [tid:0]
  96500: system.cpu.iew: [tid:0] Not blocked, so attempting to run dispatch.
  96500: system.cpu.iew: [tid:0] Getting list of reinsertion ready instructions from WIB
  96500: system.cpu.iew: [tid:0] There are 0 reinsertion ready instructions from WIB
  96500: system.cpu.iew: Processing [tid:0]
  96500: system.cpu.iew: [tid:0], Dispatch dispatched 0 instructions.
  96500: system.cpu.iew: IQ has 64 free entries (Can schedule: 0).  LQ has 32 free entries. SQ has 32 free entries.
  97000: system.cpu.iew: Issue: Processing [tid:0]
  97000: system.cpu.iew: [tid:0] Not blocked, so attempting to run dispatch.
  97000: system.cpu.iew: [tid:0] Getting list of reinsertion ready instructions from WIB
  97000: system.cpu.iew: [tid:0] There are 0 reinsertion ready instructions from WIB
  97000: system.cpu.iew: Processing [tid:0]
  97000: system.cpu.iew: [tid:0], Dispatch dispatched 0 instructions.
  97000: system.cpu.iew: IQ has 64 free entries (Can schedule: 0).  LQ has 32 free entries. SQ has 32 free entries.
  97500: system.cpu.iew: Issue: Processing [tid:0]
  97500: system.cpu.iew: [tid:0] Not blocked, so attempting to run dispatch.
  97500: system.cpu.iew: [tid:0] Getting list of reinsertion ready instructions from WIB
  97500: system.cpu.iew: [tid:0] There are 0 reinsertion ready instructions from WIB
  97500: system.cpu.iew: Processing [tid:0]
  97500: system.cpu.iew: [tid:0], Dispatch dispatched 0 instructions.
  97500: system.cpu.iew: IQ has 64 free entries (Can schedule: 0).  LQ has 32 free entries. SQ has 32 free entries.
  98000: system.cpu.iew: Issue: Processing [tid:0]
  98000: system.cpu.iew: [tid:0] Not blocked, so attempting to run dispatch.
  98000: system.cpu.iew: [tid:0] Getting list of reinsertion ready instructions from WIB
  98000: system.cpu.iew: [tid:0] There are 0 reinsertion ready instructions from WIB
  98000: system.cpu.iew: Processing [tid:0]
  98000: system.cpu.iew: [tid:0], Dispatch dispatched 0 instructions.
  98000: system.cpu.iew: IQ has 64 free entries (Can schedule: 0).  LQ has 32 free entries. SQ has 32 free entries.
  98500: system.cpu.iew: Issue: Processing [tid:0]
  98500: system.cpu.iew: [tid:0] Not blocked, so attempting to run dispatch.
  98500: system.cpu.iew: [tid:0] Getting list of reinsertion ready instructions from WIB
  98500: system.cpu.iew: [tid:0] There are 0 reinsertion ready instructions from WIB
  98500: system.cpu.iew: Processing [tid:0]
  98500: system.cpu.iew: [tid:0], Dispatch dispatched 0 instructions.
  98500: system.cpu.iew: IQ has 64 free entries (Can schedule: 0).  LQ has 32 free entries. SQ has 32 free entries.
 161500: system.cpu.iew: Issue: Processing [tid:0]
 161500: system.cpu.iew: [tid:0] Not blocked, so attempting to run dispatch.
 161500: system.cpu.iew: [tid:0] Getting list of reinsertion ready instructions from WIB
 161500: system.cpu.iew: [tid:0] There are 0 reinsertion ready instructions from WIB
 161500: system.cpu.iew: Processing [tid:0]
 161500: system.cpu.iew: [tid:0], Dispatch dispatched 0 instructions.
 161500: system.cpu.iew: IQ has 64 free entries (Can schedule: 0).  LQ has 32 free entries. SQ has 32 free entries.
 162000: system.cpu.iew: Issue: Processing [tid:0]
 162000: system.cpu.iew: [tid:0] Not blocked, so attempting to run dispatch.
 162000: system.cpu.iew: [tid:0] Getting list of reinsertion ready instructions from WIB
 162000: system.cpu.iew: [tid:0] There are 0 reinsertion ready instructions from WIB
 162000: system.cpu.iew: Processing [tid:0]
 162000: system.cpu.iew: [tid:0], Dispatch dispatched 0 instructions.
 162000: system.cpu.iew: IQ has 64 free entries (Can schedule: 0).  LQ has 32 free entries. SQ has 32 free entries.
 162500: system.cpu.iew: Issue: Processing [tid:0]
 162500: system.cpu.iew: [tid:0] Not blocked, so attempting to run dispatch.
 162500: system.cpu.iew: [tid:0] Getting list of reinsertion ready instructions from WIB
 162500: system.cpu.iew: [tid:0] There are 0 reinsertion ready instructions from WIB
 162500: system.cpu.iew: Processing [tid:0]
 162500: system.cpu.iew: [tid:0], Dispatch dispatched 0 instructions.
 162500: system.cpu.iew: IQ has 64 free entries (Can schedule: 0).  LQ has 32 free entries. SQ has 32 free entries.
 163000: system.cpu.iew: Issue: Processing [tid:0]
 163000: system.cpu.iew: [tid:0] Not blocked, so attempting to run dispatch.
 163000: system.cpu.iew: [tid:0] Getting list of reinsertion ready instructions from WIB
 163000: system.cpu.iew: [tid:0] There are 0 reinsertion ready instructions from WIB
 163000: system.cpu.iew: Processing [tid:0]
 163000: system.cpu.iew: [tid:0], Dispatch dispatched 0 instructions.
 163000: system.cpu.iew: IQ has 64 free entries (Can schedule: 0).  LQ has 32 free entries. SQ has 32 free entries.
 163000: system.cpu.rob: Adding inst PC (0x401f00=>0x401f04).(0=>1) to the ROB.
 163000: system.cpu.rob: [tid:0] Now has 1 instructions.
 163000: system.cpu.rob: Adding inst PC (0x401f04=>0x401f08).(0=>1) to the ROB.
 163000: system.cpu.rob: [tid:0] Now has 2 instructions.
 163000: system.cpu.rob: Adding inst PC (0x401f08=>0x401f0c).(0=>1) to the ROB.
 163000: system.cpu.rob: [tid:0] Now has 3 instructions.
 163000: system.cpu.rob: Adding inst PC (0x401f0c=>0x401f10).(0=>1) to the ROB.
 163000: system.cpu.rob: [tid:0] Now has 4 instructions.
 163000: system.cpu.rob: Adding inst PC (0x401f10=>0x401f14).(0=>1) to the ROB.
 163000: system.cpu.rob: [tid:0] Now has 5 instructions.
 163000: system.cpu.rob: Adding inst PC (0x401f14=>0x401f18).(0=>1) to the ROB.
 163000: system.cpu.rob: [tid:0] Now has 6 instructions.
 163000: system.cpu.rob: Adding inst PC (0x401f18=>0x401f1c).(0=>1) to the ROB.
 163000: system.cpu.rob: [tid:0] Now has 7 instructions.
 163000: system.cpu.rob: Adding inst PC (0x401f1c=>0x401f20).(0=>1) to the ROB.
 163000: system.cpu.rob: [tid:0] Now has 8 instructions.
 163000: system.cpu.rob: [tid:0] Checking if head is ready. ROB size=8
. HEAD SN=4 163000: system.cpu.rob: [tid:0] Reading Head Instr.
 163000: system.cpu.rob: [tid:0] Reading Head Instr.
 163500: system.cpu.iew: Issue: Processing [tid:0]
 163500: system.cpu.iew: [tid:0] Not blocked, so attempting to run dispatch.
 163500: system.cpu.iew: [tid:0] Getting list of reinsertion ready instructions from WIB
 163500: system.cpu.iew: [tid:0] There are 0 reinsertion ready instructions from WIB
 163500: system.cpu.iew: [tid:0] Issue: Adding PC (0x401f00=>0x401f04).(0=>1) [sn:4] [tid:0] to IQ.
 163500: system.cpu.iew: [tid:0] Issue: Memory instruction encountered, adding to LSQ.
 163500: system.cpu.iew: [tid:0] Issue: Adding PC (0x401f04=>0x401f08).(0=>1) [sn:5] [tid:0] to IQ.
 163500: system.cpu.iew: [tid:0] Issue: Adding PC (0x401f08=>0x401f0c).(0=>1) [sn:6] [tid:0] to IQ.
 163500: system.cpu.iew: [tid:0] Issue: Adding PC (0x401f0c=>0x401f10).(0=>1) [sn:7] [tid:0] to IQ.
 163500: system.cpu.iew: [tid:0] Issue: Adding PC (0x401f10=>0x401f14).(0=>1) [sn:8] [tid:0] to IQ.
 163500: system.cpu.iew: [tid:0] Issue: Adding PC (0x401f14=>0x401f18).(0=>1) [sn:9] [tid:0] to IQ.
 163500: system.cpu.iew: [tid:0] Issue: Adding PC (0x401f18=>0x401f1c).(0=>1) [sn:10] [tid:0] to IQ.
 163500: system.cpu.iew: [tid:0] Issue: Adding PC (0x401f1c=>0x401f20).(0=>1) [sn:11] [tid:0] to IQ.
 163500: system.cpu.iew: Processing [tid:0]
 163500: system.cpu.iew: [tid:0], Dispatch dispatched 8 instructions.
 163500: system.cpu.iew: IQ has 60 free entries (Can schedule: 0).  LQ has 31 free entries. SQ has 32 free entries.
 163500: system.cpu.rob: Adding inst PC (0x401f20=>0x401f24).(0=>1) to the ROB.
 163500: system.cpu.rob: [tid:0] Now has 9 instructions.
 163500: system.cpu.rob: Adding inst PC (0x401f24=>0x401f28).(0=>1) to the ROB.
 163500: system.cpu.rob: [tid:0] Now has 10 instructions.
 163500: system.cpu.rob: Adding inst PC (0x401f28=>0x401f2c).(0=>1) to the ROB.
 163500: system.cpu.rob: [tid:0] Now has 11 instructions.
 163500: system.cpu.rob: Adding inst PC (0x401f2c=>0x401f30).(0=>1) to the ROB.
 163500: system.cpu.rob: [tid:0] Now has 12 instructions.
 163500: system.cpu.rob: Adding inst PC (0x401f30=>0x401f34).(0=>1) to the ROB.
 163500: system.cpu.rob: [tid:0] Now has 13 instructions.
 163500: system.cpu.rob: Adding inst PC (0x401f34=>0x401f38).(0=>1) to the ROB.
 163500: system.cpu.rob: [tid:0] Now has 14 instructions.
 163500: system.cpu.rob: Adding inst PC (0x401f38=>0x401f3c).(0=>1) to the ROB.
 163500: system.cpu.rob: [tid:0] Now has 15 instructions.
 163500: system.cpu.rob: Adding inst PC (0x401f3c=>0x401f40).(0=>1) to the ROB.
 163500: system.cpu.rob: [tid:0] Now has 16 instructions.
 163500: system.cpu.rob: [tid:0] Checking if head is ready. ROB size=16
. HEAD SN=4 163500: system.cpu.rob: [tid:0] Reading Head Instr.
 163500: system.cpu.rob: [tid:0] Reading Head Instr.
 164000: system.cpu.iew: Issue: Processing [tid:0]
 164000: system.cpu.iew: [tid:0] Not blocked, so attempting to run dispatch.
 164000: system.cpu.iew: [tid:0] Getting list of reinsertion ready instructions from WIB
 164000: system.cpu.iew: [tid:0] There are 0 reinsertion ready instructions from WIB
 164000: system.cpu.iew: [tid:0] Issue: Adding PC (0x401f20=>0x401f24).(0=>1) [sn:12] [tid:0] to IQ.
 164000: system.cpu.iew: [tid:0] Issue: Adding PC (0x401f24=>0x401f28).(0=>1) [sn:13] [tid:0] to IQ.
 164000: system.cpu.iew: [tid:0] Issue: Adding PC (0x401f28=>0x401f2c).(0=>1) [sn:14] [tid:0] to IQ.
 164000: system.cpu.iew: [tid:0] Issue: Adding PC (0x401f2c=>0x401f30).(0=>1) [sn:15] [tid:0] to IQ.
 164000: system.cpu.iew: [tid:0] Issue: Adding PC (0x401f30=>0x401f34).(0=>1) [sn:16] [tid:0] to IQ.
 164000: system.cpu.iew: [tid:0] Issue: Adding PC (0x401f34=>0x401f38).(0=>1) [sn:17] [tid:0] to IQ.
 164000: system.cpu.iew: [tid:0] Issue: Adding PC (0x401f38=>0x401f3c).(0=>1) [sn:18] [tid:0] to IQ.
 164000: system.cpu.iew: [tid:0] Issue: Adding PC (0x401f3c=>0x401f40).(0=>1) [sn:19] [tid:0] to IQ.
 164000: system.cpu.iew: Execute: Executing instructions from IQ.
 164000: system.cpu.iew: Execute: Processing PC (0x401f00=>0x401f04).(0=>1), [tid:0] [sn:4].
 164000: system.cpu.iew: Execute: Calculating address for memory reference.
 164000: global: RegFile: Access to int register 38, has data 0x7ffffefda0
 164000: system.cpu.rob: [tid:0] Assigned WIB Load Vector Pointer: 0
 164000: system.cpu.iew: Execute: Executing instructions from IQ.
 164000: system.cpu.iew: Execute: Processing PC (0x401f04=>0x401f08).(0=>1), [tid:0] [sn:5].
 164000: global: RegFile: Access to int register 38, has data 0x7ffffefda0
 164000: global: RegFile: Setting int register 46 to 0x7ffffefda8
 164000: system.cpu.iew: Current wb cycle: 0, width: 8, numInst: 0
wbActual:0
 164000: system.cpu.iew: Execute: Executing instructions from IQ.
 164000: system.cpu.iew: Execute: Processing PC (0x401f08=>0x401f0c).(0=>1), [tid:0] [sn:6].
 164000: global: RegFile: Access to int register 38, has data 0x7ffffefda0
 164000: global: RegFile: Setting int register 47 to 0x7ffffefda0
 164000: system.cpu.iew: Current wb cycle: 0, width: 8, numInst: 1
wbActual:1
 164000: system.cpu.iew: Execute: Executing instructions from IQ.
 164000: system.cpu.iew: Execute: Processing PC (0x401f0c=>0x401f10).(0=>1), [tid:0] [sn:7].
 164000: global: RegFile: Setting int register 48 to 0
 164000: system.cpu.iew: Current wb cycle: 0, width: 8, numInst: 2
wbActual:2
 164000: system.cpu.iew: Execute: Executing instructions from IQ.
 164000: system.cpu.iew: Execute: Processing PC (0x401f1c=>0x401f20).(0=>1), [tid:0] [sn:11].
 164000: global: RegFile: Setting int register 52 to 0
 164000: system.cpu.iew: Current wb cycle: 0, width: 8, numInst: 3
wbActual:3
 164000: system.cpu.iew: Sending instructions to commit, [sn:5] PC (0x401f04=>0x401f08).(0=>1).
 164000: system.cpu.iew: Setting Destination Register 46 (IntRegClass)
 164000: system.cpu.iew: Sending instructions to commit, [sn:6] PC (0x401f08=>0x401f0c).(0=>1).
 164000: system.cpu.iew: Setting Destination Register 47 (IntRegClass)
 164000: system.cpu.iew: Sending instructions to commit, [sn:7] PC (0x401f0c=>0x401f10).(0=>1).
 164000: system.cpu.iew: Setting Destination Register 48 (IntRegClass)
 164000: system.cpu.iew: Sending instructions to commit, [sn:11] PC (0x401f1c=>0x401f20).(0=>1).
 164000: system.cpu.iew: Setting Destination Register 52 (IntRegClass)
 164000: system.cpu.iew: Processing [tid:0]
 164000: system.cpu.iew: [tid:0], Dispatch dispatched 8 instructions.
 164000: system.cpu.iew: IQ has 56 free entries (Can schedule: 0).  LQ has 31 free entries. SQ has 32 free entries.
 164000: system.cpu.rob: [tid:0] Checking if head is ready. ROB size=16
. HEAD SN=4 164000: system.cpu.rob: [tid:0] Reading Head Instr.
 164000: system.cpu.rob: [tid:0] Reading Head Instr.
 164500: system.cpu.iew: Issue: Processing [tid:0]
 164500: system.cpu.iew: [tid:0] Not blocked, so attempting to run dispatch.
 164500: system.cpu.iew: [tid:0] Getting list of reinsertion ready instructions from WIB
 164500: system.cpu.iew: [tid:0] There are 0 reinsertion ready instructions from WIB
 164500: system.cpu.iew: Execute: Executing instructions from IQ.
 164500: system.cpu.iew: Execute: Processing PC (0x401f10=>0x401f14).(0=>1), [tid:0] [sn:8].
 164500: global: RegFile: Access to int register 48, has data 0
 164500: global: RegFile: Setting int register 49 to 0
 164500: system.cpu.iew: Current wb cycle: 0, width: 8, numInst: 0
wbActual:0
 164500: system.cpu.iew: Execute: Executing instructions from IQ.
 164500: system.cpu.iew: Execute: Processing PC (0x401f20=>0x401f24).(0=>1), [tid:0] [sn:12].
 164500: global: RegFile: Access to int register 52, has data 0
 164500: global: RegFile: Setting int register 53 to 0
 164500: system.cpu.iew: Current wb cycle: 0, width: 8, numInst: 1
wbActual:1
 164500: system.cpu.iew: Execute: Executing instructions from IQ.
 164500: system.cpu.iew: Execute: Processing PC (0x401f2c=>0x401f30).(0=>1), [tid:0] [sn:15].
 164500: global: RegFile: Setting int register 56 to 0
 164500: system.cpu.iew: Current wb cycle: 0, width: 8, numInst: 2
wbActual:2
 164500: system.cpu.iew: Execute: Executing instructions from IQ.
 164500: system.cpu.iew: Execute: Processing PC (0x401f3c=>0x401f40).(0=>1), [tid:0] [sn:19].
 164500: global: RegFile: Setting int register 60 to 0x401f40
 164500: system.cpu.iew: Current wb cycle: 0, width: 8, numInst: 3
wbActual:3
 164500: system.cpu.iew: Sending instructions to commit, [sn:8] PC (0x401f10=>0x401f14).(0=>1).
 164500: system.cpu.iew: Setting Destination Register 49 (IntRegClass)
 164500: system.cpu.iew: Sending instructions to commit, [sn:12] PC (0x401f20=>0x401f24).(0=>1).
 164500: system.cpu.iew: Setting Destination Register 53 (IntRegClass)
 164500: system.cpu.iew: Sending instructions to commit, [sn:15] PC (0x401f2c=>0x401f30).(0=>1).
 164500: system.cpu.iew: Setting Destination Register 56 (IntRegClass)
 164500: system.cpu.iew: Sending instructions to commit, [sn:19] PC (0x401f3c=>0x418500).(0=>1).
 164500: system.cpu.iew: Setting Destination Register 60 (IntRegClass)
 164500: system.cpu.iew: Processing [tid:0]
 164500: system.cpu.iew: [tid:0], Dispatch dispatched 0 instructions.
 164500: system.cpu.iew: IQ has 59 free entries (Can schedule: 0).  LQ has 31 free entries. SQ has 32 free entries.
 164500: system.cpu.rob: [tid:0] Checking if head is ready. ROB size=16
. HEAD SN=4 164500: system.cpu.rob: [tid:0] Reading Head Instr.
 164500: system.cpu.rob: [tid:0] Reading Head Instr.
 165000: system.cpu.iew: Issue: Processing [tid:0]
 165000: system.cpu.iew: [tid:0] Not blocked, so attempting to run dispatch.
 165000: system.cpu.iew: [tid:0] Getting list of reinsertion ready instructions from WIB
 165000: system.cpu.iew: [tid:0] There are 0 reinsertion ready instructions from WIB
 165000: system.cpu.iew: Execute: Executing instructions from IQ.
 165000: system.cpu.iew: Execute: Processing PC (0x401f14=>0x401f18).(0=>1), [tid:0] [sn:9].
 165000: global: RegFile: Access to int register 49, has data 0
 165000: global: RegFile: Setting int register 50 to 0x400000
 165000: system.cpu.iew: Current wb cycle: 0, width: 8, numInst: 0
wbActual:0
 165000: system.cpu.iew: Execute: Executing instructions from IQ.
 165000: system.cpu.iew: Execute: Processing PC (0x401f24=>0x401f28).(0=>1), [tid:0] [sn:13].
 165000: global: RegFile: Access to int register 53, has data 0
 165000: global: RegFile: Setting int register 54 to 0x410000
 165000: system.cpu.iew: Current wb cycle: 0, width: 8, numInst: 1
wbActual:1
 165000: system.cpu.iew: Execute: Executing instructions from IQ.
 165000: system.cpu.iew: Execute: Processing PC (0x401f30=>0x401f34).(0=>1), [tid:0] [sn:16].
 165000: global: RegFile: Access to int register 56, has data 0
 165000: global: RegFile: Setting int register 57 to 0
 165000: system.cpu.iew: Current wb cycle: 0, width: 8, numInst: 2
wbActual:2
 165000: system.cpu.iew: Sending instructions to commit, [sn:9] PC (0x401f14=>0x401f18).(0=>1).
 165000: system.cpu.iew: Setting Destination Register 50 (IntRegClass)
 165000: system.cpu.iew: Sending instructions to commit, [sn:13] PC (0x401f24=>0x401f28).(0=>1).
 165000: system.cpu.iew: Setting Destination Register 54 (IntRegClass)
 165000: system.cpu.iew: Sending instructions to commit, [sn:16] PC (0x401f30=>0x401f34).(0=>1).
 165000: system.cpu.iew: Setting Destination Register 57 (IntRegClass)
 165000: system.cpu.iew: Processing [tid:0]
 165000: system.cpu.iew: [tid:0], Dispatch dispatched 0 instructions.
 165000: system.cpu.iew: IQ has 62 free entries (Can schedule: 0).  LQ has 31 free entries. SQ has 32 free entries.
 165000: system.cpu.rob: [tid:0] Checking if head is ready. ROB size=16
. HEAD SN=4 165000: system.cpu.rob: [tid:0] Reading Head Instr.
 165000: system.cpu.rob: [tid:0] Reading Head Instr.
 165500: system.cpu.iew: Issue: Processing [tid:0]
 165500: system.cpu.iew: [tid:0] Not blocked, so attempting to run dispatch.
 165500: system.cpu.iew: [tid:0] Getting list of reinsertion ready instructions from WIB
 165500: system.cpu.iew: [tid:0] There are 0 reinsertion ready instructions from WIB
 165500: system.cpu.iew: Execute: Executing instructions from IQ.
 165500: system.cpu.iew: Execute: Processing PC (0x401f18=>0x401f1c).(0=>1), [tid:0] [sn:10].
 165500: global: RegFile: Access to int register 50, has data 0x400000
 165500: global: RegFile: Setting int register 51 to 0x400500
 165500: system.cpu.iew: Current wb cycle: 0, width: 8, numInst: 0
wbActual:0
 165500: system.cpu.iew: Execute: Executing instructions from IQ.
 165500: system.cpu.iew: Execute: Processing PC (0x401f28=>0x401f2c).(0=>1), [tid:0] [sn:14].
 165500: global: RegFile: Access to int register 54, has data 0x410000
 165500: global: RegFile: Setting int register 55 to 0x418be0
 165500: system.cpu.iew: Current wb cycle: 0, width: 8, numInst: 1
wbActual:1
 165500: system.cpu.iew: Execute: Executing instructions from IQ.
 165500: system.cpu.iew: Execute: Processing PC (0x401f34=>0x401f38).(0=>1), [tid:0] [sn:17].
 165500: global: RegFile: Access to int register 57, has data 0
 165500: global: RegFile: Setting int register 58 to 0x410000
 165500: system.cpu.iew: Current wb cycle: 0, width: 8, numInst: 2
wbActual:2
 165500: system.cpu.iew: Sending instructions to commit, [sn:10] PC (0x401f18=>0x401f1c).(0=>1).
 165500: system.cpu.iew: Setting Destination Register 51 (IntRegClass)
 165500: system.cpu.iew: Sending instructions to commit, [sn:14] PC (0x401f28=>0x401f2c).(0=>1).
 165500: system.cpu.iew: Setting Destination Register 55 (IntRegClass)
 165500: system.cpu.iew: Sending instructions to commit, [sn:17] PC (0x401f34=>0x401f38).(0=>1).
 165500: system.cpu.iew: Setting Destination Register 58 (IntRegClass)
 165500: system.cpu.iew: Processing [tid:0]
 165500: system.cpu.iew: [tid:0], Dispatch dispatched 0 instructions.
 165500: system.cpu.iew: IQ has 63 free entries (Can schedule: 0).  LQ has 31 free entries. SQ has 32 free entries.
 165500: system.cpu.rob: [tid:0] Checking if head is ready. ROB size=16
. HEAD SN=4 165500: system.cpu.rob: [tid:0] Reading Head Instr.
 165500: system.cpu.rob: [tid:0] Reading Head Instr.
 166000: system.cpu.iew: Issue: Processing [tid:0]
 166000: system.cpu.iew: [tid:0] Not blocked, so attempting to run dispatch.
 166000: system.cpu.iew: [tid:0] Getting list of reinsertion ready instructions from WIB
 166000: system.cpu.iew: [tid:0] There are 0 reinsertion ready instructions from WIB
 166000: system.cpu.iew: Execute: Executing instructions from IQ.
 166000: system.cpu.iew: Execute: Processing PC (0x401f38=>0x401f3c).(0=>1), [tid:0] [sn:18].
 166000: global: RegFile: Access to int register 58, has data 0x410000
 166000: global: RegFile: Setting int register 59 to 0x418ca8
 166000: system.cpu.iew: Current wb cycle: 0, width: 8, numInst: 0
wbActual:0
 166000: system.cpu.iew: Sending instructions to commit, [sn:18] PC (0x401f38=>0x401f3c).(0=>1).
 166000: system.cpu.iew: Setting Destination Register 59 (IntRegClass)
 166000: system.cpu.iew: Processing [tid:0]
 166000: system.cpu.iew: [tid:0], Dispatch dispatched 0 instructions.
 166000: system.cpu.iew: IQ has 63 free entries (Can schedule: 0).  LQ has 31 free entries. SQ has 32 free entries.
 166000: system.cpu.rob: [tid:0] Checking if head is ready. ROB size=16
. HEAD SN=4 166000: system.cpu.rob: [tid:0] Reading Head Instr.
 166000: system.cpu.rob: [tid:0] Reading Head Instr.
 166500: system.cpu.iew: Issue: Processing [tid:0]
 166500: system.cpu.iew: [tid:0] Not blocked, so attempting to run dispatch.
 166500: system.cpu.iew: [tid:0] Getting list of reinsertion ready instructions from WIB
 166500: system.cpu.iew: [tid:0] There are 0 reinsertion ready instructions from WIB
 166500: system.cpu.iew: Processing [tid:0]
 166500: system.cpu.iew: [tid:0], Dispatch dispatched 0 instructions.
 166500: system.cpu.iew: IQ has 63 free entries (Can schedule: 0).  LQ has 31 free entries. SQ has 32 free entries.
 166500: system.cpu.rob: [tid:0] Checking if head is ready. ROB size=16
. HEAD SN=4 166500: system.cpu.rob: [tid:0] Reading Head Instr.
 166500: system.cpu.rob: [tid:0] Reading Head Instr.
 167000: system.cpu.iew: Issue: Processing [tid:0]
 167000: system.cpu.iew: [tid:0] Not blocked, so attempting to run dispatch.
 167000: system.cpu.iew: [tid:0] Getting list of reinsertion ready instructions from WIB
 167000: system.cpu.iew: [tid:0] There are 0 reinsertion ready instructions from WIB
 167000: system.cpu.iew: Processing [tid:0]
 167000: system.cpu.iew: [tid:0], Dispatch dispatched 0 instructions.
 167000: system.cpu.iew: IQ has 63 free entries (Can schedule: 0).  LQ has 31 free entries. SQ has 32 free entries.
 167000: system.cpu.rob: [tid:0] Checking if head is ready. ROB size=16
. HEAD SN=4 167000: system.cpu.rob: [tid:0] Reading Head Instr.
 167000: system.cpu.rob: [tid:0] Reading Head Instr.
 167500: system.cpu.iew: Issue: Processing [tid:0]
 167500: system.cpu.iew: [tid:0] Not blocked, so attempting to run dispatch.
 167500: system.cpu.iew: [tid:0] Getting list of reinsertion ready instructions from WIB
 167500: system.cpu.iew: [tid:0] There are 0 reinsertion ready instructions from WIB
 167500: system.cpu.iew: Processing [tid:0]
 167500: system.cpu.iew: [tid:0], Dispatch dispatched 0 instructions.
 167500: system.cpu.iew: IQ has 63 free entries (Can schedule: 0).  LQ has 31 free entries. SQ has 32 free entries.
 167500: system.cpu.rob: [tid:0] Checking if head is ready. ROB size=16
. HEAD SN=4 167500: system.cpu.rob: [tid:0] Reading Head Instr.
 167500: system.cpu.rob: [tid:0] Reading Head Instr.
 168000: system.cpu.iew: Issue: Processing [tid:0]
 168000: system.cpu.iew: [tid:0] Not blocked, so attempting to run dispatch.
 168000: system.cpu.iew: [tid:0] Getting list of reinsertion ready instructions from WIB
 168000: system.cpu.iew: [tid:0] There are 0 reinsertion ready instructions from WIB
 168000: system.cpu.iew: Processing [tid:0]
 168000: system.cpu.iew: [tid:0], Dispatch dispatched 0 instructions.
 168000: system.cpu.iew: IQ has 63 free entries (Can schedule: 0).  LQ has 31 free entries. SQ has 32 free entries.
 168000: system.cpu.rob: [tid:0] Checking if head is ready. ROB size=16
. HEAD SN=4 168000: system.cpu.rob: [tid:0] Reading Head Instr.
 168000: system.cpu.rob: [tid:0] Reading Head Instr.
 168500: system.cpu.iew: Issue: Processing [tid:0]
 168500: system.cpu.iew: [tid:0] Not blocked, so attempting to run dispatch.
 168500: system.cpu.iew: [tid:0] Getting list of reinsertion ready instructions from WIB
 168500: system.cpu.iew: [tid:0] There are 0 reinsertion ready instructions from WIB
 168500: system.cpu.iew: Processing [tid:0]
 168500: system.cpu.iew: [tid:0], Dispatch dispatched 0 instructions.
 168500: system.cpu.iew: IQ has 63 free entries (Can schedule: 0).  LQ has 31 free entries. SQ has 32 free entries.
 168500: system.cpu.rob: [tid:0] Checking if head is ready. ROB size=16
. HEAD SN=4 168500: system.cpu.rob: [tid:0] Reading Head Instr.
 168500: system.cpu.rob: [tid:0] Reading Head Instr.
 169000: system.cpu.iew: Issue: Processing [tid:0]
 169000: system.cpu.iew: [tid:0] Not blocked, so attempting to run dispatch.
 169000: system.cpu.iew: [tid:0] Getting list of reinsertion ready instructions from WIB
 169000: system.cpu.iew: [tid:0] There are 0 reinsertion ready instructions from WIB
 169000: system.cpu.iew: Processing [tid:0]
 169000: system.cpu.iew: [tid:0], Dispatch dispatched 0 instructions.
 169000: system.cpu.iew: IQ has 63 free entries (Can schedule: 0).  LQ has 31 free entries. SQ has 32 free entries.
 169000: system.cpu.rob: [tid:0] Checking if head is ready. ROB size=16
. HEAD SN=4 169000: system.cpu.rob: [tid:0] Reading Head Instr.
 169000: system.cpu.rob: [tid:0] Reading Head Instr.
 169500: system.cpu.iew: Issue: Processing [tid:0]
 169500: system.cpu.iew: [tid:0] Not blocked, so attempting to run dispatch.
 169500: system.cpu.iew: [tid:0] Getting list of reinsertion ready instructions from WIB
 169500: system.cpu.iew: [tid:0] There are 0 reinsertion ready instructions from WIB
 169500: system.cpu.iew: Processing [tid:0]
 169500: system.cpu.iew: [tid:0], Dispatch dispatched 0 instructions.
 169500: system.cpu.iew: IQ has 63 free entries (Can schedule: 0).  LQ has 31 free entries. SQ has 32 free entries.
 169500: system.cpu.rob: [tid:0] Checking if head is ready. ROB size=16
. HEAD SN=4 169500: system.cpu.rob: [tid:0] Reading Head Instr.
 169500: system.cpu.rob: [tid:0] Reading Head Instr.
 170000: system.cpu.iew: Issue: Processing [tid:0]
 170000: system.cpu.iew: [tid:0] Not blocked, so attempting to run dispatch.
 170000: system.cpu.iew: [tid:0] Getting list of reinsertion ready instructions from WIB
 170000: system.cpu.iew: [tid:0] There are 0 reinsertion ready instructions from WIB
 170000: system.cpu.iew: Processing [tid:0]
 170000: system.cpu.iew: [tid:0], Dispatch dispatched 0 instructions.
 170000: system.cpu.iew: IQ has 63 free entries (Can schedule: 0).  LQ has 31 free entries. SQ has 32 free entries.
 170000: system.cpu.rob: [tid:0] Checking if head is ready. ROB size=16
. HEAD SN=4 170000: system.cpu.rob: [tid:0] Reading Head Instr.
 170000: system.cpu.rob: [tid:0] Reading Head Instr.
 170500: system.cpu.iew: Issue: Processing [tid:0]
 170500: system.cpu.iew: [tid:0] Not blocked, so attempting to run dispatch.
 170500: system.cpu.iew: [tid:0] Getting list of reinsertion ready instructions from WIB
 170500: system.cpu.iew: [tid:0] There are 0 reinsertion ready instructions from WIB
 170500: system.cpu.iew: Processing [tid:0]
 170500: system.cpu.iew: [tid:0], Dispatch dispatched 0 instructions.
 170500: system.cpu.iew: IQ has 63 free entries (Can schedule: 0).  LQ has 31 free entries. SQ has 32 free entries.
 170500: system.cpu.rob: [tid:0] Checking if head is ready. ROB size=16
. HEAD SN=4 170500: system.cpu.rob: [tid:0] Reading Head Instr.
 170500: system.cpu.rob: [tid:0] Reading Head Instr.
 171000: system.cpu.iew: Issue: Processing [tid:0]
 171000: system.cpu.iew: [tid:0] Not blocked, so attempting to run dispatch.
 171000: system.cpu.iew: [tid:0] Getting list of reinsertion ready instructions from WIB
 171000: system.cpu.iew: [tid:0] There are 0 reinsertion ready instructions from WIB
 171000: system.cpu.iew: Processing [tid:0]
 171000: system.cpu.iew: [tid:0], Dispatch dispatched 0 instructions.
 171000: system.cpu.iew: IQ has 63 free entries (Can schedule: 0).  LQ has 31 free entries. SQ has 32 free entries.
 171000: system.cpu.rob: [tid:0] Checking if head is ready. ROB size=16
. HEAD SN=4 171000: system.cpu.rob: [tid:0] Reading Head Instr.
 171000: system.cpu.rob: [tid:0] Reading Head Instr.
 249500: system.cpu.iew: Issue: Processing [tid:0]
 249500: system.cpu.iew: [tid:0] Not blocked, so attempting to run dispatch.
 249500: system.cpu.iew: [tid:0] Getting list of reinsertion ready instructions from WIB
 249500: system.cpu.iew: [tid:0] There are 0 reinsertion ready instructions from WIB
 249500: system.cpu.iew: Processing [tid:0]
 249500: system.cpu.iew: [tid:0], Dispatch dispatched 0 instructions.
 249500: system.cpu.iew: IQ has 63 free entries (Can schedule: 0).  LQ has 31 free entries. SQ has 32 free entries.
 249500: system.cpu.rob: [tid:0] Checking if head is ready. ROB size=16
. HEAD SN=4 249500: system.cpu.rob: [tid:0] Reading Head Instr.
 249500: system.cpu.rob: [tid:0] Reading Head Instr.
 250000: system.cpu.iew: Issue: Processing [tid:0]
 250000: system.cpu.iew: [tid:0] Not blocked, so attempting to run dispatch.
 250000: system.cpu.iew: [tid:0] Getting list of reinsertion ready instructions from WIB
 250000: system.cpu.iew: [tid:0] There are 0 reinsertion ready instructions from WIB
 250000: system.cpu.iew: Processing [tid:0]
 250000: system.cpu.iew: [tid:0], Dispatch dispatched 0 instructions.
 250000: system.cpu.iew: IQ has 63 free entries (Can schedule: 0).  LQ has 31 free entries. SQ has 32 free entries.
 250000: system.cpu.rob: [tid:0] Checking if head is ready. ROB size=16
. HEAD SN=4 250000: system.cpu.rob: [tid:0] Reading Head Instr.
 250000: system.cpu.rob: [tid:0] Reading Head Instr.
 250500: system.cpu.iew: Issue: Processing [tid:0]
 250500: system.cpu.iew: [tid:0] Not blocked, so attempting to run dispatch.
 250500: system.cpu.iew: [tid:0] Getting list of reinsertion ready instructions from WIB
 250500: system.cpu.iew: [tid:0] There are 0 reinsertion ready instructions from WIB
 250500: system.cpu.iew: Processing [tid:0]
 250500: system.cpu.iew: [tid:0], Dispatch dispatched 0 instructions.
 250500: system.cpu.iew: IQ has 63 free entries (Can schedule: 0).  LQ has 31 free entries. SQ has 32 free entries.
 250500: system.cpu.rob: [tid:0] Checking if head is ready. ROB size=16
. HEAD SN=4 250500: system.cpu.rob: [tid:0] Reading Head Instr.
 250500: system.cpu.rob: [tid:0] Reading Head Instr.
 251000: system.cpu.iew: Issue: Processing [tid:0]
 251000: system.cpu.iew: [tid:0] Not blocked, so attempting to run dispatch.
 251000: system.cpu.iew: [tid:0] Getting list of reinsertion ready instructions from WIB
 251000: system.cpu.iew: [tid:0] There are 0 reinsertion ready instructions from WIB
 251000: system.cpu.iew: Processing [tid:0]
 251000: system.cpu.iew: [tid:0], Dispatch dispatched 0 instructions.
 251000: system.cpu.iew: IQ has 63 free entries (Can schedule: 0).  LQ has 31 free entries. SQ has 32 free entries.
 251000: system.cpu.rob: Adding inst PC (0x418500=>0x418504).(0=>1) to the ROB.
 251000: system.cpu.rob: [tid:0] Now has 17 instructions.
 251000: system.cpu.rob: Adding inst PC (0x418500=>0x418504).(1=>2) to the ROB.
 251000: system.cpu.rob: [tid:0] Now has 18 instructions.
 251000: system.cpu.rob: Adding inst PC (0x418500=>0x418504).(2=>3) to the ROB.
 251000: system.cpu.rob: [tid:0] Now has 19 instructions.
 251000: system.cpu.rob: Adding inst PC (0x418500=>0x418504).(3=>4) to the ROB.
 251000: system.cpu.rob: [tid:0] Now has 20 instructions.
 251000: system.cpu.rob: Adding inst PC (0x418504=>0x418508).(0=>1) to the ROB.
 251000: system.cpu.rob: [tid:0] Now has 21 instructions.
 251000: system.cpu.rob: Adding inst PC (0x418508=>0x41850c).(0=>1) to the ROB.
 251000: system.cpu.rob: [tid:0] Now has 22 instructions.
 251000: system.cpu.rob: Adding inst PC (0x41850c=>0x418510).(0=>1) to the ROB.
 251000: system.cpu.rob: [tid:0] Now has 23 instructions.
 251000: system.cpu.rob: Adding inst PC (0x418510=>0x418514).(0=>1) to the ROB.
 251000: system.cpu.rob: [tid:0] Now has 24 instructions.
 251000: system.cpu.rob: [tid:0] Checking if head is ready. ROB size=24
. HEAD SN=4 251000: system.cpu.rob: [tid:0] Reading Head Instr.
 251000: system.cpu.rob: [tid:0] Reading Head Instr.
 251500: system.cpu.iew: Issue: Processing [tid:0]
 251500: system.cpu.iew: [tid:0] Not blocked, so attempting to run dispatch.
 251500: system.cpu.iew: [tid:0] Getting list of reinsertion ready instructions from WIB
 251500: system.cpu.iew: [tid:0] There are 0 reinsertion ready instructions from WIB
 251500: system.cpu.iew: [tid:0] Issue: Adding PC (0x418500=>0x418504).(0=>1) [sn:20] [tid:0] to IQ.
 251500: system.cpu.iew: [tid:0] Issue: Adding PC (0x418500=>0x418504).(1=>2) [sn:21] [tid:0] to IQ.
 251500: system.cpu.iew: [tid:0] Issue: Memory instruction encountered, adding to LSQ.
 251500: system.cpu.iew: [tid:0] Issue: Adding PC (0x418500=>0x418504).(2=>3) [sn:22] [tid:0] to IQ.
 251500: system.cpu.iew: [tid:0] Issue: Memory instruction encountered, adding to LSQ.
 251500: system.cpu.iew: [tid:0] Issue: Adding PC (0x418500=>0x418504).(3=>4) [sn:23] [tid:0] to IQ.
 251500: system.cpu.iew: [tid:0] Issue: Adding PC (0x418504=>0x418508).(0=>1) [sn:24] [tid:0] to IQ.
 251500: system.cpu.iew: [tid:0] Issue: Adding PC (0x418508=>0x41850c).(0=>1) [sn:25] [tid:0] to IQ.
 251500: system.cpu.iew: [tid:0] Issue: Adding PC (0x41850c=>0x418510).(0=>1) [sn:26] [tid:0] to IQ.
 251500: system.cpu.iew: [tid:0] Issue: Memory instruction encountered, adding to LSQ.
 251500: system.cpu.iew: [tid:0] Issue: Adding PC (0x418510=>0x418514).(0=>1) [sn:27] [tid:0] to IQ.
 251500: system.cpu.iew: Processing [tid:0]
 251500: system.cpu.iew: [tid:0], Dispatch dispatched 8 instructions.
 251500: system.cpu.iew: IQ has 57 free entries (Can schedule: 0).  LQ has 30 free entries. SQ has 30 free entries.
 251500: system.cpu.rob: Adding inst PC (0x418510=>0x418514).(1=>2) to the ROB.
 251500: system.cpu.rob: [tid:0] Now has 25 instructions.
 251500: system.cpu.rob: Adding inst PC (0x418510=>0x418514).(2=>3) to the ROB.
 251500: system.cpu.rob: [tid:0] Now has 26 instructions.
 251500: system.cpu.rob: Adding inst PC (0x418514=>0x418518).(0=>1) to the ROB.
 251500: system.cpu.rob: [tid:0] Now has 27 instructions.
 251500: system.cpu.rob: Adding inst PC (0x418518=>0x41851c).(0=>1) to the ROB.
 251500: system.cpu.rob: [tid:0] Now has 28 instructions.
 251500: system.cpu.rob: Adding inst PC (0x418518=>0x41851c).(1=>2) to the ROB.
 251500: system.cpu.rob: [tid:0] Now has 29 instructions.
 251500: system.cpu.rob: Adding inst PC (0x418518=>0x41851c).(2=>3) to the ROB.
 251500: system.cpu.rob: [tid:0] Now has 30 instructions.
 251500: system.cpu.rob: Adding inst PC (0x41851c=>0x418520).(0=>1) to the ROB.
 251500: system.cpu.rob: [tid:0] Now has 31 instructions.
 251500: system.cpu.rob: Adding inst PC (0x418520=>0x418524).(0=>1) to the ROB.
 251500: system.cpu.rob: [tid:0] Now has 32 instructions.
 251500: system.cpu.rob: [tid:0] Checking if head is ready. ROB size=32
. HEAD SN=4 251500: system.cpu.rob: [tid:0] Reading Head Instr.
 251500: system.cpu.rob: [tid:0] Reading Head Instr.
 252000: system.cpu.iew: Issue: Processing [tid:0]
 252000: system.cpu.iew: [tid:0] Not blocked, so attempting to run dispatch.
 252000: system.cpu.iew: [tid:0] Getting list of reinsertion ready instructions from WIB
 252000: system.cpu.iew: [tid:0] There are 0 reinsertion ready instructions from WIB
 252000: system.cpu.iew: [tid:0] Issue: Adding PC (0x418510=>0x418514).(1=>2) [sn:28] [tid:0] to IQ.
 252000: system.cpu.iew: [tid:0] Issue: Memory instruction encountered, adding to LSQ.
 252000: system.cpu.iew: [tid:0] Issue: Adding PC (0x418510=>0x418514).(2=>3) [sn:29] [tid:0] to IQ.
 252000: system.cpu.iew: [tid:0] Issue: Memory instruction encountered, adding to LSQ.
 252000: system.cpu.iew: [tid:0] Issue: Adding PC (0x418514=>0x418518).(0=>1) [sn:30] [tid:0] to IQ.
 252000: system.cpu.iew: [tid:0] Issue: Adding PC (0x418518=>0x41851c).(0=>1) [sn:31] [tid:0] to IQ.
 252000: system.cpu.iew: [tid:0] Issue: Adding PC (0x418518=>0x41851c).(1=>2) [sn:32] [tid:0] to IQ.
 252000: system.cpu.iew: [tid:0] Issue: Memory instruction encountered, adding to LSQ.
 252000: system.cpu.iew: [tid:0] Issue: Adding PC (0x418518=>0x41851c).(2=>3) [sn:33] [tid:0] to IQ.
 252000: system.cpu.iew: [tid:0] Issue: Memory instruction encountered, adding to LSQ.
 252000: system.cpu.iew: [tid:0] Issue: Adding PC (0x41851c=>0x418520).(0=>1) [sn:34] [tid:0] to IQ.
 252000: system.cpu.iew: [tid:0] Issue: Adding PC (0x418520=>0x418524).(0=>1) [sn:35] [tid:0] to IQ.
 252000: system.cpu.iew: Execute: Executing instructions from IQ.
 252000: system.cpu.iew: Execute: Processing PC (0x418500=>0x418504).(0=>1), [tid:0] [sn:20].
 252000: global: RegFile: Access to int register 38, has data 0x7ffffefda0
 252000: global: RegFile: Setting int register 61 to 0x7ffffefc20
 252000: system.cpu.iew: Current wb cycle: 0, width: 8, numInst: 0
wbActual:0
 252000: system.cpu.iew: Execute: Executing instructions from IQ.
 252000: system.cpu.iew: Execute: Processing PC (0x418504=>0x418508).(0=>1), [tid:0] [sn:24].
 252000: global: RegFile: Setting int register 63 to 0x47d000
 252000: system.cpu.iew: Current wb cycle: 0, width: 8, numInst: 1
wbActual:1
 252000: system.cpu.iew: Sending instructions to commit, [sn:20] PC (0x418500=>0x418504).(0=>1).
 252000: system.cpu.iew: Setting Destination Register 61 (IntRegClass)
 252000: system.cpu.iew: Sending instructions to commit, [sn:24] PC (0x418504=>0x418508).(0=>1).
 252000: system.cpu.iew: Setting Destination Register 63 (IntRegClass)
 252000: system.cpu.iew: Processing [tid:0]
 252000: system.cpu.iew: [tid:0], Dispatch dispatched 8 instructions.
 252000: system.cpu.iew: IQ has 53 free entries (Can schedule: 0).  LQ has 30 free entries. SQ has 26 free entries.
 252000: system.cpu.rob: Adding inst PC (0x418524=>0x418528).(0=>1) to the ROB.
 252000: system.cpu.rob: [tid:0] Now has 33 instructions.
 252000: system.cpu.rob: Adding inst PC (0x418524=>0x418528).(1=>2) to the ROB.
 252000: system.cpu.rob: [tid:0] Now has 34 instructions.
 252000: system.cpu.rob: Adding inst PC (0x418524=>0x418528).(2=>3) to the ROB.
 252000: system.cpu.rob: [tid:0] Now has 35 instructions.
 252000: system.cpu.rob: Adding inst PC (0x418528=>0x41852c).(0=>1) to the ROB.
 252000: system.cpu.rob: [tid:0] Now has 36 instructions.
 252000: system.cpu.rob: Adding inst PC (0x418528=>0x41852c).(1=>2) to the ROB.
 252000: system.cpu.rob: [tid:0] Now has 37 instructions.
 252000: system.cpu.rob: Adding inst PC (0x418528=>0x41852c).(2=>3) to the ROB.
 252000: system.cpu.rob: [tid:0] Now has 38 instructions.
 252000: system.cpu.rob: Adding inst PC (0x41852c=>0x418530).(0=>1) to the ROB.
 252000: system.cpu.rob: [tid:0] Now has 39 instructions.
 252000: system.cpu.rob: Adding inst PC (0x418530=>0x418534).(0=>1) to the ROB.
 252000: system.cpu.rob: [tid:0] Now has 40 instructions.
 252000: system.cpu.rob: [tid:0] Checking if head is ready. ROB size=40
. HEAD SN=4 252000: system.cpu.rob: [tid:0] Reading Head Instr.
 252000: system.cpu.rob: [tid:0] Reading Head Instr.
 252500: system.cpu.iew: Issue: Processing [tid:0]
 252500: system.cpu.iew: [tid:0] Not blocked, so attempting to run dispatch.
 252500: system.cpu.iew: [tid:0] Getting list of reinsertion ready instructions from WIB
 252500: system.cpu.iew: [tid:0] There are 0 reinsertion ready instructions from WIB
 252500: system.cpu.iew: [tid:0] Issue: Adding PC (0x418524=>0x418528).(0=>1) [sn:36] [tid:0] to IQ.
 252500: system.cpu.iew: [tid:0] Issue: Adding PC (0x418524=>0x418528).(1=>2) [sn:37] [tid:0] to IQ.
 252500: system.cpu.iew: [tid:0] Issue: Memory instruction encountered, adding to LSQ.
 252500: system.cpu.iew: [tid:0] Issue: Adding PC (0x418524=>0x418528).(2=>3) [sn:38] [tid:0] to IQ.
 252500: system.cpu.iew: [tid:0] Issue: Memory instruction encountered, adding to LSQ.
 252500: system.cpu.iew: [tid:0] Issue: Adding PC (0x418528=>0x41852c).(0=>1) [sn:39] [tid:0] to IQ.
 252500: system.cpu.iew: [tid:0] Issue: Adding PC (0x418528=>0x41852c).(1=>2) [sn:40] [tid:0] to IQ.
 252500: system.cpu.iew: [tid:0] Issue: Memory instruction encountered, adding to LSQ.
 252500: system.cpu.iew: [tid:0] Issue: Adding PC (0x418528=>0x41852c).(2=>3) [sn:41] [tid:0] to IQ.
 252500: system.cpu.iew: [tid:0] Issue: Memory instruction encountered, adding to LSQ.
 252500: system.cpu.iew: [tid:0] Issue: Adding PC (0x41852c=>0x418530).(0=>1) [sn:42] [tid:0] to IQ.
 252500: system.cpu.iew: [tid:0] Issue: Memory instruction encountered, adding to LSQ.
 252500: system.cpu.iew: [tid:0] Issue: Adding PC (0x418530=>0x418534).(0=>1) [sn:43] [tid:0] to IQ.
 252500: system.cpu.iew: [tid:0] Issue: Memory instruction encountered, adding to LSQ.
 252500: system.cpu.iew: Execute: Executing instructions from IQ.
 252500: system.cpu.iew: Execute: Processing PC (0x418500=>0x418504).(1=>2), [tid:0] [sn:21].
 252500: system.cpu.iew: Execute: Calculating address for memory reference.
 252500: global: RegFile: Access to int register 61, has data 0x7ffffefc20
 252500: global: RegFile: Access to int register 42, has data 0
 252500: system.cpu.iew: Current wb cycle: 0, width: 8, numInst: 0
wbActual:0
 252500: system.cpu.iew: Execute: Executing instructions from IQ.
 252500: system.cpu.iew: Execute: Processing PC (0x418500=>0x418504).(2=>3), [tid:0] [sn:22].
 252500: system.cpu.iew: Execute: Calculating address for memory reference.
 252500: global: RegFile: Access to int register 61, has data 0x7ffffefc20
 252500: global: RegFile: Access to int register 60, has data 0x401f40
 252500: system.cpu.iew: Current wb cycle: 0, width: 8, numInst: 1
wbActual:1
 252500: system.cpu.iew: Execute: Executing instructions from IQ.
 252500: system.cpu.iew: Execute: Processing PC (0x418500=>0x418504).(3=>4), [tid:0] [sn:23].
 252500: global: RegFile: Access to int register 61, has data 0x7ffffefc20
 252500: global: RegFile: Setting int register 62 to 0x7ffffefc20
 252500: system.cpu.iew: Current wb cycle: 0, width: 8, numInst: 2
wbActual:2
 252500: system.cpu.iew: Execute: Executing instructions from IQ.
 252500: system.cpu.iew: Execute: Processing PC (0x41850c=>0x418510).(0=>1), [tid:0] [sn:26].
 252500: system.cpu.iew: Execute: Calculating address for memory reference.
 252500: global: RegFile: Access to int register 63, has data 0x47d000
 252500: system.cpu.rob: [tid:0] Assigned WIB Load Vector Pointer: 1
 252500: system.cpu.iew: Execute: Executing instructions from IQ.
 252500: system.cpu.iew: Execute: Processing PC (0x418514=>0x418518).(0=>1), [tid:0] [sn:30].
 252500: global: RegFile: Access to int register 55, has data 0x418be0
 252500: global: RegFile: Setting int register 67 to 0x418be0
 252500: system.cpu.iew: Current wb cycle: 0, width: 8, numInst: 3
wbActual:3
 252500: system.cpu.iew: Execute: Executing instructions from IQ.
 252500: system.cpu.iew: Execute: Processing PC (0x41851c=>0x418520).(0=>1), [tid:0] [sn:34].
 252500: global: RegFile: Access to int register 59, has data 0x418ca8
 252500: global: RegFile: Setting int register 69 to 0x418ca8
 252500: system.cpu.iew: Current wb cycle: 0, width: 8, numInst: 4
wbActual:4
 252500: system.cpu.iew: Execute: Executing instructions from IQ.
 252500: system.cpu.iew: Execute: Processing PC (0x418520=>0x418524).(0=>1), [tid:0] [sn:35].
 252500: global: RegFile: Access to int register 44, has data 0
 252500: global: RegFile: Setting int register 70 to 0
 252500: system.cpu.iew: Current wb cycle: 0, width: 8, numInst: 5
wbActual:5
 252500: system.cpu.iew: Sending instructions to commit, [sn:21] PC (0x418500=>0x418504).(1=>2).
 252500: system.cpu.iew: Sending instructions to commit, [sn:22] PC (0x418500=>0x418504).(2=>3).
 252500: system.cpu.iew: Sending instructions to commit, [sn:23] PC (0x418500=>0x418504).(3=>4).
 252500: system.cpu.iew: Setting Destination Register 62 (IntRegClass)
 252500: system.cpu.iew: Sending instructions to commit, [sn:30] PC (0x418514=>0x418518).(0=>1).
 252500: system.cpu.iew: Setting Destination Register 67 (IntRegClass)
 252500: system.cpu.iew: Sending instructions to commit, [sn:34] PC (0x41851c=>0x418520).(0=>1).
 252500: system.cpu.iew: Setting Destination Register 69 (IntRegClass)
 252500: system.cpu.iew: Sending instructions to commit, [sn:35] PC (0x418520=>0x418524).(0=>1).
 252500: system.cpu.iew: Setting Destination Register 70 (IntRegClass)
 252500: system.cpu.iew: Processing [tid:0]
 252500: system.cpu.iew: [tid:0], Dispatch dispatched 8 instructions.
 252500: system.cpu.iew: IQ has 52 free entries (Can schedule: 0).  LQ has 30 free entries. SQ has 20 free entries.
 252500: system.cpu.rob: Adding inst PC (0x418534=>0x418538).(0=>1) to the ROB.
 252500: system.cpu.rob: [tid:0] Now has 41 instructions.
 252500: system.cpu.rob: Adding inst PC (0x418538=>0x41853c).(0=>1) to the ROB.
 252500: system.cpu.rob: [tid:0] Now has 42 instructions.
 252500: system.cpu.rob: Adding inst PC (0x418538=>0x41853c).(1=>2) to the ROB.
 252500: system.cpu.rob: [tid:0] Now has 43 instructions.
 252500: system.cpu.rob: Adding inst PC (0x418538=>0x41853c).(2=>3) to the ROB.
 252500: system.cpu.rob: [tid:0] Now has 44 instructions.
 252500: system.cpu.rob: Adding inst PC (0x41853c=>0x418540).(0=>1) to the ROB.
 252500: system.cpu.rob: [tid:0] Now has 45 instructions.
 252500: system.cpu.rob: [tid:0] Checking if head is ready. ROB size=45
. HEAD SN=4 252500: system.cpu.rob: [tid:0] Reading Head Instr.
 252500: system.cpu.rob: [tid:0] Reading Head Instr.
 253000: system.cpu.iew: Issue: Processing [tid:0]
 253000: system.cpu.iew: [tid:0] Not blocked, so attempting to run dispatch.
 253000: system.cpu.iew: [tid:0] Getting list of reinsertion ready instructions from WIB
 253000: system.cpu.iew: [tid:0] There are 0 reinsertion ready instructions from WIB
 253000: system.cpu.iew: [tid:0] Issue: Adding PC (0x418534=>0x418538).(0=>1) [sn:44] [tid:0] to IQ.
 253000: system.cpu.iew: [tid:0] Issue: Adding PC (0x418538=>0x41853c).(0=>1) [sn:45] [tid:0] to IQ.
 253000: system.cpu.iew: [tid:0] Issue: Adding PC (0x418538=>0x41853c).(1=>2) [sn:46] [tid:0] to IQ.
 253000: system.cpu.iew: [tid:0] Issue: Memory instruction encountered, adding to LSQ.
 253000: system.cpu.iew: [tid:0] Issue: Adding PC (0x418538=>0x41853c).(2=>3) [sn:47] [tid:0] to IQ.
 253000: system.cpu.iew: [tid:0] Issue: Memory instruction encountered, adding to LSQ.
 253000: system.cpu.iew: [tid:0] Issue: Adding PC (0x41853c=>0x418540).(0=>1) [sn:48] [tid:0] to IQ.
 253000: system.cpu.iew: Execute: Executing instructions from IQ.
 253000: system.cpu.iew: Execute: Processing PC (0x418508=>0x41850c).(0=>1), [tid:0] [sn:25].
 253000: global: RegFile: Access to int register 62, has data 0x7ffffefc20
 253000: global: RegFile: Setting int register 64 to 0x7ffffefc20
 253000: system.cpu.iew: Current wb cycle: 0, width: 8, numInst: 0
wbActual:0
 253000: system.cpu.iew: Execute: Executing instructions from IQ.
 253000: system.cpu.iew: Execute: Processing PC (0x418510=>0x418514).(0=>1), [tid:0] [sn:27].
 253000: global: RegFile: Access to int register 62, has data 0x7ffffefc20
 253000: global: RegFile: Setting int register 66 to 0x7ffffefc30
 253000: system.cpu.iew: Current wb cycle: 0, width: 8, numInst: 1
wbActual:1
 253000: system.cpu.iew: Execute: Executing instructions from IQ.
 253000: system.cpu.iew: Execute: Processing PC (0x418518=>0x41851c).(0=>1), [tid:0] [sn:31].
 253000: global: RegFile: Access to int register 62, has data 0x7ffffefc20
 253000: global: RegFile: Setting int register 68 to 0x7ffffefc40
 253000: system.cpu.iew: Current wb cycle: 0, width: 8, numInst: 2
wbActual:2
 253000: system.cpu.iew: Execute: Executing instructions from IQ.
 253000: system.cpu.iew: Execute: Processing PC (0x418524=>0x418528).(0=>1), [tid:0] [sn:36].
 253000: global: RegFile: Access to int register 62, has data 0x7ffffefc20
 253000: global: RegFile: Setting int register 71 to 0x7ffffefc50
 253000: system.cpu.iew: Current wb cycle: 0, width: 8, numInst: 3
wbActual:3
 253000: system.cpu.iew: Execute: Executing instructions from IQ.
 253000: system.cpu.iew: Execute: Processing PC (0x418528=>0x41852c).(0=>1), [tid:0] [sn:39].
 253000: global: RegFile: Access to int register 62, has data 0x7ffffefc20
 253000: global: RegFile: Setting int register 72 to 0x7ffffefc60
 253000: system.cpu.iew: Current wb cycle: 0, width: 8, numInst: 4
wbActual:4
 253000: system.cpu.iew: Execute: Executing instructions from IQ.
 253000: system.cpu.iew: Execute: Processing PC (0x41852c=>0x418530).(0=>1), [tid:0] [sn:42].
 253000: system.cpu.iew: Execute: Calculating address for memory reference.
 253000: global: RegFile: Access to int register 62, has data 0x7ffffefc20
 253000: global: RegFile: Access to int register 30, has data 0
 253000: system.cpu.iew: Current wb cycle: 0, width: 8, numInst: 5
wbActual:5
 253000: system.cpu.iew: Sending instructions to commit, [sn:25] PC (0x418508=>0x41850c).(0=>1).
 253000: system.cpu.iew: Setting Destination Register 64 (IntRegClass)
 253000: system.cpu.iew: Sending instructions to commit, [sn:27] PC (0x418510=>0x418514).(0=>1).
 253000: system.cpu.iew: Setting Destination Register 66 (IntRegClass)
 253000: system.cpu.iew: Sending instructions to commit, [sn:31] PC (0x418518=>0x41851c).(0=>1).
 253000: system.cpu.iew: Setting Destination Register 68 (IntRegClass)
 253000: system.cpu.iew: Sending instructions to commit, [sn:36] PC (0x418524=>0x418528).(0=>1).
 253000: system.cpu.iew: Setting Destination Register 71 (IntRegClass)
 253000: system.cpu.iew: Sending instructions to commit, [sn:39] PC (0x418528=>0x41852c).(0=>1).
 253000: system.cpu.iew: Setting Destination Register 72 (IntRegClass)
 253000: system.cpu.iew: Sending instructions to commit, [sn:42] PC (0x41852c=>0x418530).(0=>1).
 253000: system.cpu.iew: Processing [tid:0]
 253000: system.cpu.iew: [tid:0], Dispatch dispatched 5 instructions.
 253000: system.cpu.iew: IQ has 50 free entries (Can schedule: 1).  LQ has 30 free entries. SQ has 18 free entries.
 253000: system.cpu.iew: IEW switching to active
 253000: system.cpu.rob: [tid:0] Checking if head is ready. ROB size=45
. HEAD SN=4 253000: system.cpu.rob: [tid:0] Reading Head Instr.
 253000: system.cpu.rob: [tid:0] Reading Head Instr.
 253500: system.cpu.iew: Issue: Processing [tid:0]
 253500: system.cpu.iew: [tid:0] Not blocked, so attempting to run dispatch.
 253500: system.cpu.iew: [tid:0] Getting list of reinsertion ready instructions from WIB
 253500: system.cpu.iew: [tid:0] There are 0 reinsertion ready instructions from WIB
 253500: system.cpu.iew: Execute: Executing instructions from IQ.
 253500: system.cpu.iew: Execute: Processing PC (0x418510=>0x418514).(1=>2), [tid:0] [sn:28].
 253500: system.cpu.iew: Execute: Calculating address for memory reference.
 253500: global: RegFile: Access to int register 66, has data 0x7ffffefc30
 253500: global: RegFile: Access to int register 16, has data 0
 253500: system.cpu.iew: Current wb cycle: 0, width: 8, numInst: 0
wbActual:0
 253500: system.cpu.iew: Execute: Executing instructions from IQ.
 253500: system.cpu.iew: Execute: Processing PC (0x418510=>0x418514).(2=>3), [tid:0] [sn:29].
 253500: system.cpu.iew: Execute: Calculating address for memory reference.
 253500: global: RegFile: Access to int register 66, has data 0x7ffffefc30
 253500: global: RegFile: Access to int register 22, has data 0
 253500: system.cpu.iew: Current wb cycle: 0, width: 8, numInst: 1
wbActual:1
 253500: system.cpu.iew: Execute: Executing instructions from IQ.
 253500: system.cpu.iew: Execute: Processing PC (0x418518=>0x41851c).(1=>2), [tid:0] [sn:32].
 253500: system.cpu.iew: Execute: Calculating address for memory reference.
 253500: global: RegFile: Access to int register 68, has data 0x7ffffefc40
 253500: global: RegFile: Access to int register 21, has data 0
 253500: system.cpu.iew: Current wb cycle: 0, width: 8, numInst: 2
wbActual:2
 253500: system.cpu.iew: Execute: Executing instructions from IQ.
 253500: system.cpu.iew: Execute: Processing PC (0x418518=>0x41851c).(2=>3), [tid:0] [sn:33].
 253500: system.cpu.iew: Execute: Calculating address for memory reference.
 253500: global: RegFile: Access to int register 68, has data 0x7ffffefc40
 253500: global: RegFile: Access to int register 24, has data 0
 253500: system.cpu.iew: Current wb cycle: 0, width: 8, numInst: 3
wbActual:3
 253500: system.cpu.iew: Execute: Executing instructions from IQ.
 253500: system.cpu.iew: Execute: Processing PC (0x418534=>0x418538).(0=>1), [tid:0] [sn:44].
 253500: global: RegFile: Setting int register 73 to 0
 253500: system.cpu.iew: Current wb cycle: 0, width: 8, numInst: 4
wbActual:4
 253500: system.cpu.iew: Execute: Executing instructions from IQ.
 253500: system.cpu.iew: Execute: Processing PC (0x418538=>0x41853c).(0=>1), [tid:0] [sn:45].
 253500: global: RegFile: Access to int register 62, has data 0x7ffffefc20
 253500: global: RegFile: Setting int register 74 to 0x7ffffefc90
 253500: system.cpu.iew: Current wb cycle: 0, width: 8, numInst: 5
wbActual:5
 253500: system.cpu.iew: Sending instructions to commit, [sn:28] PC (0x418510=>0x418514).(1=>2).
 253500: system.cpu.iew: Sending instructions to commit, [sn:29] PC (0x418510=>0x418514).(2=>3).
 253500: system.cpu.iew: Sending instructions to commit, [sn:32] PC (0x418518=>0x41851c).(1=>2).
 253500: system.cpu.iew: Sending instructions to commit, [sn:33] PC (0x418518=>0x41851c).(2=>3).
 253500: system.cpu.iew: Sending instructions to commit, [sn:44] PC (0x418534=>0x418538).(0=>1).
 253500: system.cpu.iew: Setting Destination Register 73 (IntRegClass)
 253500: system.cpu.iew: Sending instructions to commit, [sn:45] PC (0x418538=>0x41853c).(0=>1).
 253500: system.cpu.iew: Setting Destination Register 74 (IntRegClass)
 253500: system.cpu.iew: Processing [tid:0]
 253500: system.cpu.iew: [tid:0], Dispatch dispatched 0 instructions.
 253500: system.cpu.iew: IQ has 54 free entries (Can schedule: 1).  LQ has 30 free entries. SQ has 18 free entries.
 253500: system.cpu.rob: [tid:0] Checking if head is ready. ROB size=45
. HEAD SN=4 253500: system.cpu.rob: [tid:0] Reading Head Instr.
 253500: system.cpu.rob: [tid:0] Reading Head Instr.
 254000: system.cpu.iew: Issue: Processing [tid:0]
 254000: system.cpu.iew: [tid:0] Not blocked, so attempting to run dispatch.
 254000: system.cpu.iew: [tid:0] Getting list of reinsertion ready instructions from WIB
 254000: system.cpu.iew: [tid:0] There are 0 reinsertion ready instructions from WIB
 254000: system.cpu.iew: Execute: Executing instructions from IQ.
 254000: system.cpu.iew: Execute: Processing PC (0x418524=>0x418528).(1=>2), [tid:0] [sn:37].
 254000: system.cpu.iew: Execute: Calculating address for memory reference.
 254000: global: RegFile: Access to int register 71, has data 0x7ffffefc50
 254000: global: RegFile: Access to int register 23, has data 0
 254000: system.cpu.iew: Current wb cycle: 0, width: 8, numInst: 0
wbActual:0
 254000: system.cpu.iew: Execute: Executing instructions from IQ.
 254000: system.cpu.iew: Execute: Processing PC (0x418524=>0x418528).(2=>3), [tid:0] [sn:38].
 254000: system.cpu.iew: Execute: Calculating address for memory reference.
 254000: global: RegFile: Access to int register 71, has data 0x7ffffefc50
 254000: global: RegFile: Access to int register 27, has data 0
 254000: system.cpu.iew: Current wb cycle: 0, width: 8, numInst: 1
wbActual:1
 254000: system.cpu.iew: Execute: Executing instructions from IQ.
 254000: system.cpu.iew: Execute: Processing PC (0x418528=>0x41852c).(1=>2), [tid:0] [sn:40].
 254000: system.cpu.iew: Execute: Calculating address for memory reference.
 254000: global: RegFile: Access to int register 72, has data 0x7ffffefc60
 254000: global: RegFile: Access to int register 28, has data 0
 254000: system.cpu.iew: Current wb cycle: 0, width: 8, numInst: 2
wbActual:2
 254000: system.cpu.iew: Execute: Executing instructions from IQ.
 254000: system.cpu.iew: Execute: Processing PC (0x418528=>0x41852c).(2=>3), [tid:0] [sn:41].
 254000: system.cpu.iew: Execute: Calculating address for memory reference.
 254000: global: RegFile: Access to int register 72, has data 0x7ffffefc60
 254000: global: RegFile: Access to int register 29, has data 0
 254000: system.cpu.iew: Current wb cycle: 0, width: 8, numInst: 3
wbActual:3
 254000: system.cpu.iew: Sending instructions to commit, [sn:37] PC (0x418524=>0x418528).(1=>2).
 254000: system.cpu.iew: Sending instructions to commit, [sn:38] PC (0x418524=>0x418528).(2=>3).
 254000: system.cpu.iew: Sending instructions to commit, [sn:40] PC (0x418528=>0x41852c).(1=>2).
 254000: system.cpu.iew: Sending instructions to commit, [sn:41] PC (0x418528=>0x41852c).(2=>3).
 254000: system.cpu.iew: Processing [tid:0]
 254000: system.cpu.iew: [tid:0], Dispatch dispatched 0 instructions.
 254000: system.cpu.iew: IQ has 58 free entries (Can schedule: 0).  LQ has 30 free entries. SQ has 18 free entries.
 254000: system.cpu.iew: IEW switching to idle
 254000: system.cpu.rob: [tid:0] Checking if head is ready. ROB size=45
. HEAD SN=4 254000: system.cpu.rob: [tid:0] Reading Head Instr.
 254000: system.cpu.rob: [tid:0] Reading Head Instr.
 254500: system.cpu.iew: Issue: Processing [tid:0]
 254500: system.cpu.iew: [tid:0] Not blocked, so attempting to run dispatch.
 254500: system.cpu.iew: [tid:0] Getting list of reinsertion ready instructions from WIB
 254500: system.cpu.iew: [tid:0] There are 0 reinsertion ready instructions from WIB
 254500: system.cpu.iew: Execute: Executing instructions from IQ.
 254500: system.cpu.iew: Execute: Processing PC (0x418538=>0x41853c).(1=>2), [tid:0] [sn:46].
 254500: system.cpu.iew: Execute: Calculating address for memory reference.
 254500: global: RegFile: Access to int register 74, has data 0x7ffffefc90
 254500: global: RegFile: Access to int register 46, has data 0x7ffffefda8
 254500: system.cpu.iew: Current wb cycle: 0, width: 8, numInst: 0
wbActual:0
 254500: system.cpu.iew: Execute: Executing instructions from IQ.
 254500: system.cpu.iew: Execute: Processing PC (0x418538=>0x41853c).(2=>3), [tid:0] [sn:47].
 254500: system.cpu.iew: Execute: Calculating address for memory reference.
 254500: global: RegFile: Access to int register 74, has data 0x7ffffefc90
 254500: global: RegFile: Access to int register 51, has data 0x400500
 254500: system.cpu.iew: Current wb cycle: 0, width: 8, numInst: 1
wbActual:1
 254500: system.cpu.iew: Sending instructions to commit, [sn:46] PC (0x418538=>0x41853c).(1=>2).
 254500: system.cpu.iew: Sending instructions to commit, [sn:47] PC (0x418538=>0x41853c).(2=>3).
 254500: system.cpu.iew: Processing [tid:0]
 254500: system.cpu.iew: [tid:0], Dispatch dispatched 0 instructions.
 254500: system.cpu.iew: IQ has 60 free entries (Can schedule: 0).  LQ has 30 free entries. SQ has 18 free entries.
 254500: system.cpu.rob: [tid:0] Checking if head is ready. ROB size=45
. HEAD SN=4 254500: system.cpu.rob: [tid:0] Reading Head Instr.
 254500: system.cpu.rob: [tid:0] Reading Head Instr.
 255000: system.cpu.iew: Issue: Processing [tid:0]
 255000: system.cpu.iew: [tid:0] Not blocked, so attempting to run dispatch.
 255000: system.cpu.iew: [tid:0] Getting list of reinsertion ready instructions from WIB
 255000: system.cpu.iew: [tid:0] There are 0 reinsertion ready instructions from WIB
 255000: system.cpu.iew: Processing [tid:0]
 255000: system.cpu.iew: [tid:0], Dispatch dispatched 0 instructions.
 255000: system.cpu.iew: IQ has 60 free entries (Can schedule: 0).  LQ has 30 free entries. SQ has 18 free entries.
 255000: system.cpu.rob: [tid:0] Checking if head is ready. ROB size=45
. HEAD SN=4 255000: system.cpu.rob: [tid:0] Reading Head Instr.
 255000: system.cpu.rob: [tid:0] Reading Head Instr.
 255500: system.cpu.iew: Issue: Processing [tid:0]
 255500: system.cpu.iew: [tid:0] Not blocked, so attempting to run dispatch.
 255500: system.cpu.iew: [tid:0] Getting list of reinsertion ready instructions from WIB
 255500: system.cpu.iew: [tid:0] There are 0 reinsertion ready instructions from WIB
 255500: system.cpu.iew: Processing [tid:0]
 255500: system.cpu.iew: [tid:0], Dispatch dispatched 0 instructions.
 255500: system.cpu.iew: IQ has 60 free entries (Can schedule: 0).  LQ has 30 free entries. SQ has 18 free entries.
 255500: system.cpu.rob: [tid:0] Checking if head is ready. ROB size=45
. HEAD SN=4 255500: system.cpu.rob: [tid:0] Reading Head Instr.
 255500: system.cpu.rob: [tid:0] Reading Head Instr.
 256000: system.cpu.iew: Issue: Processing [tid:0]
[...]
 417500: system.cpu.rob: WIB: Instruction waiting on loadPtr 1. [sn:78]
 417500: system.cpu.rob: WIB: Instruction waiting on loadPtr 1. [sn:79]
 417500: system.cpu.rob: [tid:0] WIB Reading instruction in bank 13. Waiting Status:1 [sn:79]
 417500: system.cpu.iew: [tid:0] There are 0 reinsertion ready instructions from WIB
 417500: system.cpu.iew: Processing [tid:0]
 417500: system.cpu.iew: [tid:0], Dispatch dispatched 0 instructions.
 417500: system.cpu.iew: IQ has 64 free entries (Can schedule: 0).  LQ has 30 free entries. SQ has 26 free entries.
 417500: system.cpu.rob: [tid:0] Checking if head is ready. ROB size=13
. HEAD SN=68 417500: system.cpu.rob: [tid:0] Reading Head Instr.
 417500: system.cpu.rob: [tid:0] Reading Head Instr.
 418000: system.cpu.iew: Issue: Processing [tid:0]
 418000: system.cpu.iew: [tid:0] Not blocked, so attempting to run dispatch.
 418000: system.cpu.iew: [tid:0] Getting list of reinsertion ready instructions from WIB
 418000: system.cpu.rob: WIB: Instruction waiting on loadPtr 1. [sn:72]
 418000: system.cpu.rob: [tid:0] WIB Reading instruction in bank 6. Waiting Status:1 [sn:72]
 418000: system.cpu.rob: WIB: Instruction waiting on loadPtr 1. [sn:74]
 418000: system.cpu.rob: [tid:0] WIB Reading instruction in bank 8. Waiting Status:1 [sn:74]
 418000: system.cpu.rob: WIB: Instruction waiting on loadPtr 1. [sn:75]
 418000: system.cpu.rob: [tid:0] WIB Reading instruction in bank 9. Waiting Status:1 [sn:75]
 418000: system.cpu.rob: WIB: Instruction waiting on loadPtr 1. [sn:75]
 418000: system.cpu.rob: WIB: Instruction waiting on loadPtr 1. [sn:77]
 418000: system.cpu.rob: [tid:0] WIB Reading instruction in bank 11. Waiting Status:1 [sn:77]
 418000: system.cpu.rob: WIB: Instruction waiting on loadPtr 1. [sn:77]
 418000: system.cpu.rob: WIB: Instruction waiting on loadPtr 1. [sn:78]
 418000: system.cpu.rob: [tid:0] WIB Reading instruction in bank 12. Waiting Status:1 [sn:78]
 418000: system.cpu.rob: WIB: Instruction waiting on loadPtr 1. [sn:79]
 418000: system.cpu.rob: [tid:0] WIB Reading instruction in bank 13. Waiting Status:1 [sn:79]
 418000: system.cpu.rob: WIB: Instruction waiting on loadPtr 1. [sn:79]
 418000: system.cpu.iew: [tid:0] There are 0 reinsertion ready instructions from WIB
 418000: system.cpu.iew: Processing [tid:0]
 418000: system.cpu.iew: [tid:0], Dispatch dispatched 0 instructions.
 418000: system.cpu.iew: IQ has 64 free entries (Can schedule: 0).  LQ has 30 free entries. SQ has 26 free entries.
 418000: system.cpu.rob: [tid:0] Checking if head is ready. ROB size=13
. HEAD SN=68 418000: system.cpu.rob: [tid:0] Reading Head Instr.
 418000: system.cpu.rob: [tid:0] Reading Head Instr.
 418500: system.cpu.iew: Issue: Processing [tid:0]
 418500: system.cpu.iew: [tid:0] Not blocked, so attempting to run dispatch.
 418500: system.cpu.iew: [tid:0] Getting list of reinsertion ready instructions from WIB
 418500: system.cpu.rob: WIB: Instruction waiting on loadPtr 1. [sn:72]
 418500: system.cpu.rob: [tid:0] WIB Reading instruction in bank 6. Waiting Status:1 [sn:72]
 418500: system.cpu.rob: WIB: Instruction waiting on loadPtr 1. [sn:72]
 418500: system.cpu.rob: WIB: Instruction waiting on loadPtr 1. [sn:74]
 418500: system.cpu.rob: [tid:0] WIB Reading instruction in bank 8. Waiting Status:1 [sn:74]
 418500: system.cpu.rob: WIB: Instruction waiting on loadPtr 1. [sn:74]
 418500: system.cpu.rob: WIB: Instruction waiting on loadPtr 1. [sn:75]
 418500: system.cpu.rob: [tid:0] WIB Reading instruction in bank 9. Waiting Status:1 [sn:75]
 418500: system.cpu.rob: WIB: Instruction waiting on loadPtr 1. [sn:77]
 418500: system.cpu.rob: [tid:0] WIB Reading instruction in bank 11. Waiting Status:1 [sn:77]
 418500: system.cpu.rob: WIB: Instruction waiting on loadPtr 1. [sn:78]
 418500: system.cpu.rob: [tid:0] WIB Reading instruction in bank 12. Waiting Status:1 [sn:78]
 418500: system.cpu.rob: WIB: Instruction waiting on loadPtr 1. [sn:78]
 418500: system.cpu.rob: WIB: Instruction waiting on loadPtr 1. [sn:79]
 418500: system.cpu.rob: [tid:0] WIB Reading instruction in bank 13. Waiting Status:1 [sn:79]
 418500: system.cpu.iew: [tid:0] There are 0 reinsertion ready instructions from WIB
 418500: system.cpu.iew: Processing [tid:0]
 418500: system.cpu.iew: [tid:0], Dispatch dispatched 0 instructions.
 418500: system.cpu.iew: IQ has 64 free entries (Can schedule: 0).  LQ has 30 free entries. SQ has 26 free entries.
 418500: system.cpu.rob: [tid:0] Checking if head is ready. ROB size=13
. HEAD SN=68 418500: system.cpu.rob: [tid:0] Reading Head Instr.
 418500: system.cpu.rob: [tid:0] Reading Head Instr.
 419000: system.cpu.iew: Issue: Processing [tid:0]
 419000: system.cpu.iew: [tid:0] Not blocked, so attempting to run dispatch.
 419000: system.cpu.iew: [tid:0] Getting list of reinsertion ready instructions from WIB
 419000: system.cpu.rob: WIB: Instruction waiting on loadPtr 1. [sn:72]
 419000: system.cpu.rob: [tid:0] WIB Reading instruction in bank 6. Waiting Status:1 [sn:72]
 419000: system.cpu.rob: WIB: Instruction waiting on loadPtr 1. [sn:74]
 419000: system.cpu.rob: [tid:0] WIB Reading instruction in bank 8. Waiting Status:1 [sn:74]
 419000: system.cpu.rob: WIB: Instruction waiting on loadPtr 1. [sn:75]
 419000: system.cpu.rob: [tid:0] WIB Reading instruction in bank 9. Waiting Status:1 [sn:75]
 419000: system.cpu.rob: WIB: Instruction waiting on loadPtr 1. [sn:75]
 419000: system.cpu.rob: WIB: Instruction waiting on loadPtr 1. [sn:77]
 419000: system.cpu.rob: [tid:0] WIB Reading instruction in bank 11. Waiting Status:1 [sn:77]
 419000: system.cpu.rob: WIB: Instruction waiting on loadPtr 1. [sn:77]
 419000: system.cpu.rob: WIB: Instruction waiting on loadPtr 1. [sn:78]
 419000: system.cpu.rob: [tid:0] WIB Reading instruction in bank 12. Waiting Status:1 [sn:78]
 419000: system.cpu.rob: WIB: Instruction waiting on loadPtr 1. [sn:79]
 419000: system.cpu.rob: [tid:0] WIB Reading instruction in bank 13. Waiting Status:1 [sn:79]
 419000: system.cpu.rob: WIB: Instruction waiting on loadPtr 1. [sn:79]
 419000: system.cpu.iew: [tid:0] There are 0 reinsertion ready instructions from WIB
 419000: system.cpu.iew: Processing [tid:0]
 419000: system.cpu.iew: [tid:0], Dispatch dispatched 0 instructions.
 419000: system.cpu.iew: IQ has 64 free entries (Can schedule: 0).  LQ has 30 free entries. SQ has 26 free entries.
 419000: system.cpu.rob: [tid:0] Checking if head is ready. ROB size=13
. HEAD SN=68 419000: system.cpu.rob: [tid:0] Reading Head Instr.
 419000: system.cpu.rob: [tid:0] Reading Head Instr.
 419500: system.cpu.iew: Issue: Processing [tid:0]
 419500: system.cpu.iew: [tid:0] Not blocked, so attempting to run dispatch.
 419500: system.cpu.iew: [tid:0] Getting list of reinsertion ready instructions from WIB
 419500: system.cpu.rob: WIB: Instruction waiting on loadPtr 1. [sn:72]
 419500: system.cpu.rob: [tid:0] WIB Reading instruction in bank 6. Waiting Status:1 [sn:72]
 419500: system.cpu.rob: WIB: Instruction waiting on loadPtr 1. [sn:72]
 419500: system.cpu.rob: WIB: Instruction waiting on loadPtr 1. [sn:74]
 419500: system.cpu.rob: [tid:0] WIB Reading instruction in bank 8. Waiting Status:1 [sn:74]
 419500: system.cpu.rob: WIB: Instruction waiting on loadPtr 1. [sn:74]
 419500: system.cpu.rob: WIB: Instruction waiting on loadPtr 1. [sn:75]
 419500: system.cpu.rob: [tid:0] WIB Reading instruction in bank 9. Waiting Status:1 [sn:75]
 419500: system.cpu.rob: WIB: Instruction waiting on loadPtr 1. [sn:77]
 419500: system.cpu.rob: [tid:0] WIB Reading instruction in bank 11. Waiting Status:1 [sn:77]
 419500: system.cpu.rob: WIB: Instruction waiting on loadPtr 1. [sn:78]
 419500: system.cpu.rob: [tid:0] WIB Reading instruction in bank 12. Waiting Status:1 [sn:78]
 419500: system.cpu.rob: WIB: Instruction waiting on loadPtr 1. [sn:78]
 419500: system.cpu.rob: WIB: Instruction waiting on loadPtr 1. [sn:79]
 419500: system.cpu.rob: [tid:0] WIB Reading instruction in bank 13. Waiting Status:1 [sn:79]
 419500: system.cpu.iew: [tid:0] There are 0 reinsertion ready instructions from WIB
 419500: system.cpu.iew: Processing [tid:0]
 419500: system.cpu.iew: [tid:0], Dispatch dispatched 0 instructions.
 419500: system.cpu.iew: IQ has 64 free entries (Can schedule: 0).  LQ has 30 free entries. SQ has 27 free entries.
 419500: system.cpu.rob: [tid:0] Checking if head is ready. ROB size=13
. HEAD SN=68 419500: system.cpu.rob: [tid:0] Reading Head Instr.
 419500: system.cpu.rob: [tid:0] Reading Head Instr.
 419501: global: RegFile: Setting int register 88 to 0x2
 419501: system.cpu.iew: Current wb cycle: 0, width: 8, numInst: 0
wbActual:0
 420000: system.cpu.iew: Issue: Processing [tid:0]
 420000: system.cpu.iew: [tid:0] Not blocked, so attempting to run dispatch.
 420000: system.cpu.iew: [tid:0] Getting list of reinsertion ready instructions from WIB
 420000: system.cpu.rob: WIB: Instruction waiting on loadPtr 1. [sn:72]
 420000: system.cpu.rob: [tid:0] WIB Reading instruction in bank 6. Waiting Status:1 [sn:72]
 420000: system.cpu.rob: WIB: Instruction waiting on loadPtr 1. [sn:74]
 420000: system.cpu.rob: [tid:0] WIB Reading instruction in bank 8. Waiting Status:1 [sn:74]
 420000: system.cpu.rob: WIB: Instruction waiting on loadPtr 1. [sn:75]
 420000: system.cpu.rob: [tid:0] WIB Reading instruction in bank 9. Waiting Status:1 [sn:75]
 420000: system.cpu.rob: WIB: Instruction waiting on loadPtr 1. [sn:75]
 420000: system.cpu.rob: WIB: Instruction waiting on loadPtr 1. [sn:77]
 420000: system.cpu.rob: [tid:0] WIB Reading instruction in bank 11. Waiting Status:1 [sn:77]
 420000: system.cpu.rob: WIB: Instruction waiting on loadPtr 1. [sn:77]
 420000: system.cpu.rob: WIB: Instruction waiting on loadPtr 1. [sn:78]
 420000: system.cpu.rob: [tid:0] WIB Reading instruction in bank 12. Waiting Status:1 [sn:78]
 420000: system.cpu.rob: WIB: Instruction waiting on loadPtr 1. [sn:79]
 420000: system.cpu.rob: [tid:0] WIB Reading instruction in bank 13. Waiting Status:1 [sn:79]
 420000: system.cpu.rob: WIB: Instruction waiting on loadPtr 1. [sn:79]
 420000: system.cpu.iew: [tid:0] There are 0 reinsertion ready instructions from WIB
 420000: system.cpu.iew: Sending instructions to commit, [sn:68] PC (0x418554=>0x418558).(0=>1).
 420000: system.cpu.rob: [tid:0] Freed WIB Load Vector Pointer: 1
 420000: system.cpu.rob: [tid:0] Cleared load vector pointer 1 for instruction in WIB. [sn:72]
 420000: system.cpu.rob: [tid:0] Cleared load vector pointer 1 for instruction in WIB. [sn:74]
 420000: system.cpu.rob: [tid:0] Cleared load vector pointer 1 for instruction in WIB. [sn:75]
 420000: system.cpu.rob: [tid:0] Cleared load vector pointer 1 for instruction in WIB. [sn:77]
 420000: system.cpu.rob: [tid:0] Cleared load vector pointer 1 for instruction in WIB. [sn:78]
 420000: system.cpu.rob: [tid:0] Cleared load vector pointer 1 for instruction in WIB. [sn:79]
 420000: system.cpu.iew: Setting Destination Register 88 (IntRegClass)
 420000: system.cpu.iew: Processing [tid:0]
 420000: system.cpu.iew: [tid:0], Dispatch dispatched 0 instructions.
 420000: system.cpu.iew: IQ has 65 free entries (Can schedule: 0).  LQ has 30 free entries. SQ has 27 free entries.
 420000: system.cpu.rob: [tid:0] Checking if head is ready. ROB size=13
. HEAD SN=68 420000: system.cpu.rob: [tid:0] Reading Head Instr.
 420000: system.cpu.rob: [tid:0] Reading Head Instr.
 420500: system.cpu.iew: Issue: Processing [tid:0]
 420500: system.cpu.iew: [tid:0] Not blocked, so attempting to run dispatch.
 420500: system.cpu.iew: [tid:0] Getting list of reinsertion ready instructions from WIB
 420500: system.cpu.rob: [tid:0] WIB Reading instruction in bank 6. Waiting Status:0 [sn:72]
 420500: system.cpu.rob: [tid:0] Instruction is ready to re-issue from WIB. [sn:72]
 420500: system.cpu.rob: [tid:0] WIB Reading instruction in bank 8. Waiting Status:0 [sn:74]
 420500: system.cpu.rob: [tid:0] Instruction is ready to re-issue from WIB. [sn:74]
 420500: system.cpu.rob: [tid:0] WIB Reading instruction in bank 9. Waiting Status:0 [sn:75]
 420500: system.cpu.rob: [tid:0] WIB Reading instruction in bank 11. Waiting Status:0 [sn:77]
 420500: system.cpu.rob: [tid:0] WIB Reading instruction in bank 12. Waiting Status:0 [sn:78]
 420500: system.cpu.rob: [tid:0] Instruction is ready to re-issue from WIB. [sn:78]
 420500: system.cpu.rob: [tid:0] WIB Reading instruction in bank 13. Waiting Status:0 [sn:79]
 420500: system.cpu.iew: [tid:0] There are 3 reinsertion ready instructions from WIB
 420500: system.cpu.iew: [tid:0] Issue: Adding PC (0x418564=>0x418568).(0=>1) [sn:72] [tid:0] from WIB to IQ.
 420500: system.cpu.iew: [tid:0] Issue: Adding PC (0x41856c=>0x418570).(0=>1) [sn:74] [tid:0] from WIB to IQ.
 420500: system.cpu.iew: [tid:0] Issue: Adding PC (0x418578=>0x41857c).(1=>2) [sn:78] [tid:0] from WIB to IQ.
 420500: system.cpu.iew: Processing [tid:0]
 420500: system.cpu.iew: [tid:0], Dispatch dispatched 0 instructions.
 420500: system.cpu.iew: IQ has 65 free entries (Can schedule: 0).  LQ has 30 free entries. SQ has 28 free entries.
 420500: system.cpu.rob: [tid:0] Checking if head is ready. ROB size=13
. HEAD SN=68 420500: system.cpu.rob: [tid:0] Reading Head Instr.
 420500: system.cpu.rob: [tid:0] Reading Head Instr.
 421000: system.cpu.iew: Issue: Processing [tid:0]
 421000: system.cpu.iew: [tid:0] Not blocked, so attempting to run dispatch.
 421000: system.cpu.iew: [tid:0] Getting list of reinsertion ready instructions from WIB
 421000: system.cpu.rob: [tid:0] WIB Reading instruction in bank 9. Waiting Status:0 [sn:75]
 421000: system.cpu.rob: [tid:0] Instruction is ready to re-issue from WIB. [sn:75]
 421000: system.cpu.rob: [tid:0] WIB Reading instruction in bank 11. Waiting Status:0 [sn:77]
 421000: system.cpu.rob: [tid:0] Instruction is ready to re-issue from WIB. [sn:77]
 421000: system.cpu.rob: [tid:0] WIB Reading instruction in bank 13. Waiting Status:0 [sn:79]
 421000: system.cpu.rob: [tid:0] Instruction is ready to re-issue from WIB. [sn:79]
 421000: system.cpu.iew: [tid:0] There are 3 reinsertion ready instructions from WIB
 421000: system.cpu.iew: [tid:0] Issue: Adding PC (0x418570=>0x418574).(0=>1) [sn:75] [tid:0] from WIB to IQ.
 421000: system.cpu.iew: [tid:0] Issue: Adding PC (0x418578=>0x41857c).(0=>1) [sn:77] [tid:0] from WIB to IQ.
 421000: system.cpu.iew: [tid:0] Issue: Adding PC (0x41857c=>0x418580).(0=>1) [sn:79] [tid:0] from WIB to IQ.
 421000: system.cpu.iew: Execute: Executing instructions from IQ.
 421000: system.cpu.iew: Execute: Processing PC (0x418564=>0x418568).(0=>1), [tid:0] [sn:72].
 421000: global: RegFile: Access to int register 88, has data 0x2
 421000: global: RegFile: Access to int register 86, has data 0x7ffffefda8
 421000: global: RegFile: Setting int register 91 to 0x7ffffefdb8
 421000: system.cpu.iew: Current wb cycle: 0, width: 8, numInst: 0
wbActual:0
 421000: system.cpu.iew: Execute: Executing instructions from IQ.
 421000: system.cpu.iew: Execute: Processing PC (0x41856c=>0x418570).(0=>1), [tid:0] [sn:74].
 421000: global: RegFile: Access to int register 91, has data 0x7ffffefdb8
 421000: global: RegFile: Setting int register 92 to 0x7ffffefdc0
 421000: system.cpu.iew: Current wb cycle: 0, width: 8, numInst: 1
wbActual:1
 421000: system.cpu.iew: Execute: Executing instructions from IQ.
 421000: system.cpu.iew: Execute: Processing PC (0x418578=>0x41857c).(1=>2), [tid:0] [sn:78].
 421000: global: RegFile: Access to int register 92, has data 0x7ffffefdc0
 421000: global: RegFile: Setting int register 94 to 0x7ffffefdc8
 421000: system.cpu.iew: Current wb cycle: 0, width: 8, numInst: 2
wbActual:2
 421000: system.cpu.iew: Sending instructions to commit, [sn:72] PC (0x418564=>0x418568).(0=>1).
 421000: system.cpu.iew: Setting Destination Register 91 (IntRegClass)
 421000: system.cpu.iew: Sending instructions to commit, [sn:74] PC (0x41856c=>0x418570).(0=>1).
 421000: system.cpu.iew: Setting Destination Register 92 (IntRegClass)
 421000: system.cpu.iew: Sending instructions to commit, [sn:78] PC (0x418578=>0x41857c).(1=>2).
 421000: system.cpu.iew: Setting Destination Register 94 (IntRegClass)
 421000: system.cpu.iew: Processing [tid:0]
 421000: system.cpu.iew: [tid:0], Dispatch dispatched 0 instructions.
 421000: system.cpu.iew: IQ has 65 free entries (Can schedule: 0).  LQ has 30 free entries. SQ has 29 free entries.
 421000: system.cpu.rob: [tid:0] Checking if head is ready. ROB size=13
. HEAD SN=68 421000: system.cpu.rob: [tid:0] Reading Head Instr.
 421000: system.cpu.rob: [tid:0] Retiring head instruction, instruction PC (0x418554=>0x418558).(0=>1), [sn:68]
 421000: system.cpu.rob: Updating global head ptr.
 421000: system.cpu.rob: [tid:0] Checking if head is ready. ROB size=12
. HEAD SN=69 421000: system.cpu.rob: [tid:0] Reading Head Instr.
 421000: system.cpu.rob: [tid:0] Retiring head instruction, instruction PC (0x418558=>0x41855c).(0=>1), [sn:69]
 421000: system.cpu.rob: Updating global head ptr.
 421000: system.cpu.rob: [tid:0] Checking if head is ready. ROB size=11
. HEAD SN=70 421000: system.cpu.rob: [tid:0] Reading Head Instr.
 421000: system.cpu.rob: [tid:0] Retiring head instruction, instruction PC (0x41855c=>0x418560).(0=>1), [sn:70]
 421000: system.cpu.rob: Updating global head ptr.
 421000: system.cpu.rob: [tid:0] Checking if head is ready. ROB size=10
. HEAD SN=71 421000: system.cpu.rob: [tid:0] Reading Head Instr.
 421000: system.cpu.rob: [tid:0] Retiring head instruction, instruction PC (0x418560=>0x418564).(0=>1), [sn:71]
 421000: system.cpu.rob: Updating global head ptr.
 421000: system.cpu.rob: [tid:0] Checking if head is ready. ROB size=9
. HEAD SN=72 421000: system.cpu.rob: [tid:0] Reading Head Instr.
 421000: system.cpu.rob: [tid:0] Reading Head Instr.
 421500: system.cpu.iew: Issue: Processing [tid:0]
 421500: system.cpu.iew: [tid:0] Not blocked, so attempting to run dispatch.
 421500: system.cpu.iew: [tid:0] Getting list of reinsertion ready instructions from WIB
 421500: system.cpu.iew: [tid:0] There are 0 reinsertion ready instructions from WIB
 421500: system.cpu.iew: Execute: Executing instructions from IQ.
 421500: system.cpu.iew: Execute: Processing PC (0x41856c=>0x418570).(0=>1), [tid:0] [sn:74].
 421500: global: RegFile: Access to int register 91, has data 0x7ffffefdb8
 421500: global: RegFile: Setting int register 92 to 0x7ffffefdc0
 421500: system.cpu.iew: Current wb cycle: 0, width: 8, numInst: 0
wbActual:0
 421500: system.cpu.iew: Execute: Executing instructions from IQ.
 421500: system.cpu.iew: Execute: Processing PC (0x418570=>0x418574).(0=>1), [tid:0] [sn:75].
 421500: system.cpu.iew: Execute: Calculating address for memory reference.
 421500: global: RegFile: Access to int register 87, has data 0x4b9000
 421500: global: RegFile: Access to int register 92, has data 0x7ffffefdc0
 421500: system.cpu.iew: Current wb cycle: 0, width: 8, numInst: 1
wbActual:1
 421500: system.cpu.iew: Execute: Executing instructions from IQ.
 421500: system.cpu.iew: Execute: Processing PC (0x418570=>0x418574).(0=>1), [tid:0] [sn:75].
 421500: system.cpu.iew: Execute: Calculating address for memory reference.
 421500: global: RegFile: Access to int register 87, has data 0x4b9000
 421500: global: RegFile: Access to int register 92, has data 0x7ffffefdc0
 421500: system.cpu.iew: Current wb cycle: 0, width: 8, numInst: 2
wbActual:2
 421500: system.cpu.iew: Execute: Executing instructions from IQ.
 421500: system.cpu.iew: Execute: Processing PC (0x418578=>0x41857c).(0=>1), [tid:0] [sn:77].
 421500: system.cpu.iew: Execute: Calculating address for memory reference.
 421500: global: RegFile: Access to int register 92, has data 0x7ffffefdc0
 421500: system.cpu.rob: [tid:0] Assigned WIB Load Vector Pointer: 1
 421500: system.cpu.iew: Execute: Executing instructions from IQ.
 421500: system.cpu.iew: Execute: Processing PC (0x418578=>0x41857c).(0=>1), [tid:0] [sn:77].
 421500: system.cpu.iew: Execute: Calculating address for memory reference.
 421500: global: RegFile: Access to int register 92, has data 0x7ffffefdc0
