Global frequency set at 1000000000000 ticks per second
      0: system.cpu.iq: IQ sharing policy set to Partitioned:64 entries per thread.
      0: system.cpu.iew.lsq.thread0: Creating LSQUnit0 object.
      0: system.cpu.rob: Created ROB
      0: system.cpu.rob: Reseting state.
      0: global: RegFile: Setting int register 38 to 0x7ffffefda0
      0: global: RegFile: Setting int register 0 to 0
      0: global: RegFile: Setting int register 1 to 0x7ffffeff5a
      0: global: RegFile: Setting int register 2 to 0
      0: system.cpu.iew.lsq.thread0: LQ size: 128, #loads occupied: 0
      0: system.cpu.iew.lsq.thread0: SQ size: 128, #stores occupied: 0
      0: system.cpu.iew.lsq.thread0: LQ size: 128, #loads occupied: 0
      0: system.cpu.iew.lsq.thread0: SQ size: 128, #stores occupied: 0
      0: system.cpu.rob: Setting active threads list pointer.
gem5 Simulator System.  https://www.gem5.org
gem5 is copyrighted software; use the --copyright option for details.

gem5 version 22.0.0.2
gem5 compiled Nov 20 2025 21:09:55
gem5 started Nov 20 2025 21:43:16
gem5 executing on ececomp5.ecn.purdue.edu, pid 1623189
command line: ./build/ECE565-ARM/gem5.opt --debug-flags=ROB,IQ,IEW,LSQUnit configs/spec/spec_se.py --cpu-type=ArmO3CPU --maxinsts=1000000 --l1d_size=64kB --l1i_size=16kB --caches --l2cache -b sjeng

**** REAL SIMULATION ****
      0: system.cpu.iew: Issue: Processing [tid:0]
      0: system.cpu.iew: [tid:0] Not blocked, so attempting to run dispatch.
      0: system.cpu.iq: Attempting to schedule ready instructions from the IQ.
      0: system.cpu.iq: Not able to schedule any instructions.
      0: system.cpu.iew: Processing [tid:0]
      0: system.cpu.iew.lsq.thread0: LQ size: 128, #loads occupied: 0
      0: system.cpu.iew.lsq.thread0: SQ size: 128, #stores occupied: 0
      0: system.cpu.iew: [tid:0], Dispatch dispatched 0 instructions.
      0: system.cpu.iew.lsq.thread0: SQ size: 128, #stores occupied: 0
      0: system.cpu.iew.lsq.thread0: LQ size: 128, #loads occupied: 0
      0: system.cpu.iew: IQ has 64 free entries (Can schedule: 0).  LQ has 128 free entries. SQ has 128 free entries.
      0: system.cpu.iew: IEW switching to idle
      0: system.cpu.rob: Does not need to squash due to being empty [sn:0]
    500: system.cpu.iew: Issue: Processing [tid:0]
    500: system.cpu.iew: [tid:0] Squashing all instructions.
    500: system.cpu.iq: [tid:0] Starting to squash instructions in the IQ.
    500: system.cpu.iq: [tid:0] Squashing until sequence number 0!
    500: system.cpu.iew.lsq.thread0: Squashing until [sn:0]!(Loads:0 Stores:0)
    500: system.cpu.iew: Removing skidbuffer instructions until [sn:0] [tid:0]
    500: system.cpu.iew: [tid:0] Removing incoming rename instructions
    500: system.cpu.iq: Attempting to schedule ready instructions from the IQ.
    500: system.cpu.iq: Not able to schedule any instructions.
    500: system.cpu.iew: Processing [tid:0]
    500: system.cpu.iew.lsq.thread0: LQ size: 128, #loads occupied: 0
    500: system.cpu.iew.lsq.thread0: SQ size: 128, #stores occupied: 0
    500: system.cpu.iew: [tid:0], Dispatch dispatched 0 instructions.
    500: system.cpu.iew.lsq.thread0: SQ size: 128, #stores occupied: 0
    500: system.cpu.iew.lsq.thread0: LQ size: 128, #loads occupied: 0
    500: system.cpu.iew: IQ has 64 free entries (Can schedule: 0).  LQ has 128 free entries. SQ has 128 free entries.
   1000: system.cpu.iew: Issue: Processing [tid:0]
   1000: system.cpu.iew: [tid:0] Done squashing, switching to running.
   1000: system.cpu.iew: [tid:0] Not blocked, so attempting to run dispatch.
   1000: system.cpu.iq: Attempting to schedule ready instructions from the IQ.
   1000: system.cpu.iq: Not able to schedule any instructions.
   1000: system.cpu.iew: Processing [tid:0]
   1000: system.cpu.iew: [tid:0], Dispatch dispatched 0 instructions.
   1000: system.cpu.iew.lsq.thread0: SQ size: 128, #stores occupied: 0
   1000: system.cpu.iew.lsq.thread0: LQ size: 128, #loads occupied: 0
   1000: system.cpu.iew: IQ has 64 free entries (Can schedule: 0).  LQ has 128 free entries. SQ has 128 free entries.
   1500: system.cpu.iew: Issue: Processing [tid:0]
   1500: system.cpu.iew: [tid:0] Not blocked, so attempting to run dispatch.
   1500: system.cpu.iq: Attempting to schedule ready instructions from the IQ.
   1500: system.cpu.iq: Not able to schedule any instructions.
   1500: system.cpu.iew: Processing [tid:0]
   1500: system.cpu.iew: [tid:0], Dispatch dispatched 0 instructions.
   1500: system.cpu.iew.lsq.thread0: SQ size: 128, #stores occupied: 0
   1500: system.cpu.iew.lsq.thread0: LQ size: 128, #loads occupied: 0
   1500: system.cpu.iew: IQ has 64 free entries (Can schedule: 0).  LQ has 128 free entries. SQ has 128 free entries.
   2000: system.cpu.iew: Issue: Processing [tid:0]
   2000: system.cpu.iew: [tid:0] Not blocked, so attempting to run dispatch.
   2000: system.cpu.iq: Attempting to schedule ready instructions from the IQ.
   2000: system.cpu.iq: Not able to schedule any instructions.
   2000: system.cpu.iew: Processing [tid:0]
   2000: system.cpu.iew: [tid:0], Dispatch dispatched 0 instructions.
   2000: system.cpu.iew.lsq.thread0: SQ size: 128, #stores occupied: 0
   2000: system.cpu.iew.lsq.thread0: LQ size: 128, #loads occupied: 0
   2000: system.cpu.iew: IQ has 64 free entries (Can schedule: 0).  LQ has 128 free entries. SQ has 128 free entries.
   2500: system.cpu.iew: Issue: Processing [tid:0]
   2500: system.cpu.iew: [tid:0] Not blocked, so attempting to run dispatch.
   2500: system.cpu.iq: Attempting to schedule ready instructions from the IQ.
   2500: system.cpu.iq: Not able to schedule any instructions.
   2500: system.cpu.iew: Processing [tid:0]
   2500: system.cpu.iew: [tid:0], Dispatch dispatched 0 instructions.
   2500: system.cpu.iew.lsq.thread0: SQ size: 128, #stores occupied: 0
   2500: system.cpu.iew.lsq.thread0: LQ size: 128, #loads occupied: 0
   2500: system.cpu.iew: IQ has 64 free entries (Can schedule: 0).  LQ has 128 free entries. SQ has 128 free entries.
   3000: system.cpu.iew: Issue: Processing [tid:0]
   3000: system.cpu.iew: [tid:0] Not blocked, so attempting to run dispatch.
   3000: system.cpu.iq: Attempting to schedule ready instructions from the IQ.
   3000: system.cpu.iq: Not able to schedule any instructions.
   3000: system.cpu.iew: Processing [tid:0]
   3000: system.cpu.iew: [tid:0], Dispatch dispatched 0 instructions.
   3000: system.cpu.iew.lsq.thread0: SQ size: 128, #stores occupied: 0
   3000: system.cpu.iew.lsq.thread0: LQ size: 128, #loads occupied: 0
   3000: system.cpu.iew: IQ has 64 free entries (Can schedule: 0).  LQ has 128 free entries. SQ has 128 free entries.
   3500: system.cpu.iew: Issue: Processing [tid:0]
   3500: system.cpu.iew: [tid:0] Not blocked, so attempting to run dispatch.
   3500: system.cpu.iq: Attempting to schedule ready instructions from the IQ.
   3500: system.cpu.iq: Not able to schedule any instructions.
   3500: system.cpu.iew: Processing [tid:0]
   3500: system.cpu.iew: [tid:0], Dispatch dispatched 0 instructions.
   3500: system.cpu.iew.lsq.thread0: SQ size: 128, #stores occupied: 0
   3500: system.cpu.iew.lsq.thread0: LQ size: 128, #loads occupied: 0
   3500: system.cpu.iew: IQ has 64 free entries (Can schedule: 0).  LQ has 128 free entries. SQ has 128 free entries.
   4000: system.cpu.iew: Issue: Processing [tid:0]
   4000: system.cpu.iew: [tid:0] Not blocked, so attempting to run dispatch.
   4000: system.cpu.iq: Attempting to schedule ready instructions from the IQ.
   4000: system.cpu.iq: Not able to schedule any instructions.
   4000: system.cpu.iew: Processing [tid:0]
   4000: system.cpu.iew: [tid:0], Dispatch dispatched 0 instructions.
   4000: system.cpu.iew.lsq.thread0: SQ size: 128, #stores occupied: 0
   4000: system.cpu.iew.lsq.thread0: LQ size: 128, #loads occupied: 0
   4000: system.cpu.iew: IQ has 64 free entries (Can schedule: 0).  LQ has 128 free entries. SQ has 128 free entries.
   4500: system.cpu.iew: Issue: Processing [tid:0]
   4500: system.cpu.iew: [tid:0] Not blocked, so attempting to run dispatch.
   4500: system.cpu.iq: Attempting to schedule ready instructions from the IQ.
   4500: system.cpu.iq: Not able to schedule any instructions.
   4500: system.cpu.iew: Processing [tid:0]
   4500: system.cpu.iew: [tid:0], Dispatch dispatched 0 instructions.
   4500: system.cpu.iew.lsq.thread0: SQ size: 128, #stores occupied: 0
   4500: system.cpu.iew.lsq.thread0: LQ size: 128, #loads occupied: 0
   4500: system.cpu.iew: IQ has 64 free entries (Can schedule: 0).  LQ has 128 free entries. SQ has 128 free entries.
   5000: system.cpu.iew: Issue: Processing [tid:0]
   5000: system.cpu.iew: [tid:0] Not blocked, so attempting to run dispatch.
   5000: system.cpu.iq: Attempting to schedule ready instructions from the IQ.
   5000: system.cpu.iq: Not able to schedule any instructions.
   5000: system.cpu.iew: Processing [tid:0]
   5000: system.cpu.iew: [tid:0], Dispatch dispatched 0 instructions.
   5000: system.cpu.iew.lsq.thread0: SQ size: 128, #stores occupied: 0
   5000: system.cpu.iew.lsq.thread0: LQ size: 128, #loads occupied: 0
   5000: system.cpu.iew: IQ has 64 free entries (Can schedule: 0).  LQ has 128 free entries. SQ has 128 free entries.
   5500: system.cpu.iew: Issue: Processing [tid:0]
   5500: system.cpu.iew: [tid:0] Not blocked, so attempting to run dispatch.
   5500: system.cpu.iq: Attempting to schedule ready instructions from the IQ.
   5500: system.cpu.iq: Not able to schedule any instructions.
   5500: system.cpu.iew: Processing [tid:0]
   5500: system.cpu.iew: [tid:0], Dispatch dispatched 0 instructions.
   5500: system.cpu.iew.lsq.thread0: SQ size: 128, #stores occupied: 0
   5500: system.cpu.iew.lsq.thread0: LQ size: 128, #loads occupied: 0
   5500: system.cpu.iew: IQ has 64 free entries (Can schedule: 0).  LQ has 128 free entries. SQ has 128 free entries.
  89000: system.cpu.iew: Issue: Processing [tid:0]
  89000: system.cpu.iew: [tid:0] Not blocked, so attempting to run dispatch.
  89000: system.cpu.iq: Attempting to schedule ready instructions from the IQ.
  89000: system.cpu.iq: Not able to schedule any instructions.
  89000: system.cpu.iew: Processing [tid:0]
  89000: system.cpu.iew: [tid:0], Dispatch dispatched 0 instructions.
  89000: system.cpu.iew.lsq.thread0: SQ size: 128, #stores occupied: 0
  89000: system.cpu.iew.lsq.thread0: LQ size: 128, #loads occupied: 0
  89000: system.cpu.iew: IQ has 64 free entries (Can schedule: 0).  LQ has 128 free entries. SQ has 128 free entries.
  89500: system.cpu.iew: Issue: Processing [tid:0]
  89500: system.cpu.iew: [tid:0] Not blocked, so attempting to run dispatch.
  89500: system.cpu.iq: Attempting to schedule ready instructions from the IQ.
  89500: system.cpu.iq: Not able to schedule any instructions.
  89500: system.cpu.iew: Processing [tid:0]
  89500: system.cpu.iew: [tid:0], Dispatch dispatched 0 instructions.
  89500: system.cpu.iew.lsq.thread0: SQ size: 128, #stores occupied: 0
  89500: system.cpu.iew.lsq.thread0: LQ size: 128, #loads occupied: 0
  89500: system.cpu.iew: IQ has 64 free entries (Can schedule: 0).  LQ has 128 free entries. SQ has 128 free entries.
  90000: global: [sn:3] has 1 ready out of 2 sources. RTI 0)
  90000: global: [sn:3] has 2 ready out of 2 sources. RTI 0)
  90000: system.cpu.iew: Issue: Processing [tid:0]
  90000: system.cpu.iew: [tid:0] Not blocked, so attempting to run dispatch.
  90000: system.cpu.iq: Attempting to schedule ready instructions from the IQ.
  90000: system.cpu.iq: Not able to schedule any instructions.
  90000: system.cpu.iew: Processing [tid:0]
  90000: system.cpu.iew: [tid:0], Dispatch dispatched 0 instructions.
  90000: system.cpu.iew.lsq.thread0: SQ size: 128, #stores occupied: 0
  90000: system.cpu.iew.lsq.thread0: LQ size: 128, #loads occupied: 0
  90000: system.cpu.iew: IQ has 64 free entries (Can schedule: 0).  LQ has 128 free entries. SQ has 128 free entries.
  90500: system.cpu.iew: Issue: Processing [tid:0]
  90500: system.cpu.iew: [tid:0] Not blocked, so attempting to run dispatch.
  90500: system.cpu.iq: Attempting to schedule ready instructions from the IQ.
  90500: system.cpu.iq: Not able to schedule any instructions.
  90500: system.cpu.iew: Processing [tid:0]
  90500: system.cpu.iew: [tid:0], Dispatch dispatched 0 instructions.
  90500: system.cpu.iew.lsq.thread0: SQ size: 128, #stores occupied: 0
  90500: system.cpu.iew.lsq.thread0: LQ size: 128, #loads occupied: 0
  90500: system.cpu.iew: IQ has 64 free entries (Can schedule: 0).  LQ has 128 free entries. SQ has 128 free entries.
  90500: system.cpu.rob: Adding inst PC (0x401ef4=>0x401ef8).(0=>1) to the ROB.
  90500: system.cpu.rob: [tid:0] Now has 1 instructions.
  90500: system.cpu.rob: Adding inst PC (0x401ef8=>0x401efc).(0=>1) to the ROB.
  90500: system.cpu.rob: [tid:0] Now has 2 instructions.
  90500: system.cpu.rob: Adding inst PC (0x401efc=>0x401f00).(0=>1) to the ROB.
  90500: system.cpu.rob: [tid:0] Now has 3 instructions.
  90500: system.cpu.rob: [tid:0] Checking if head is ready. ROB size=3
. HEAD SN=1  90500: system.cpu.rob: [tid:0] Reading Head Instr.
  90500: system.cpu.rob: [tid:0] Reading Head Instr.
  91000: system.cpu.iew: Issue: Processing [tid:0]
  91000: system.cpu.iew: [tid:0] Not blocked, so attempting to run dispatch.
  91000: system.cpu.iew: [tid:0] Issue: Adding PC (0x401ef4=>0x401ef8).(0=>1) [sn:1] [tid:0] to IQ.
  91000: system.cpu.iq: Adding instruction [sn:1] PC (0x401ef4=>0x401ef8).(0=>1) to the IQ.
  91000: system.cpu.iq: Instruction PC (0x401ef4=>0x401ef8).(0=>1) has dest reg 42 (IntRegClass) that is being added as the producer to the dependency chain.
  91000: system.cpu.iq: Instruction is ready to issue, putting it onto the ready list, PC (0x401ef4=>0x401ef8).(0=>1) opclass:1 [sn:1].
  91000: system.cpu.iew: [tid:0] Issue: Adding PC (0x401ef8=>0x401efc).(0=>1) [sn:2] [tid:0] to IQ.
  91000: system.cpu.iq: Adding instruction [sn:2] PC (0x401ef8=>0x401efc).(0=>1) to the IQ.
  91000: system.cpu.iq: Instruction PC (0x401ef8=>0x401efc).(0=>1) has dest reg 43 (IntRegClass) that is being added as the producer to the dependency chain.
  91000: system.cpu.iq: Instruction is ready to issue, putting it onto the ready list, PC (0x401ef8=>0x401efc).(0=>1) opclass:1 [sn:2].
  91000: system.cpu.iew: [tid:0] Issue: Adding PC (0x401efc=>0x401f00).(0=>1) [sn:3] [tid:0] to IQ.
  91000: system.cpu.iq: Adding instruction [sn:3] PC (0x401efc=>0x401f00).(0=>1) to the IQ.
  91000: system.cpu.iq: Instruction PC (0x401efc=>0x401f00).(0=>1) has dest reg 44 (IntRegClass) that is being added as the producer to the dependency chain.
  91000: system.cpu.iq: Instruction is ready to issue, putting it onto the ready list, PC (0x401efc=>0x401f00).(0=>1) opclass:1 [sn:3].
  91000: system.cpu.iq: Attempting to schedule ready instructions from the IQ.
  91000: system.cpu.iq: Thread 0: Issuing instruction PC (0x401ef4=>0x401ef8).(0=>1) [sn:1]
  91000: system.cpu.iq: Thread 0: Issuing instruction PC (0x401ef8=>0x401efc).(0=>1) [sn:2]
  91000: system.cpu.iq: Thread 0: Issuing instruction PC (0x401efc=>0x401f00).(0=>1) [sn:3]
  91000: system.cpu.iew: Processing [tid:0]
  91000: system.cpu.iew: [tid:0], Dispatch dispatched 3 instructions.
  91000: system.cpu.iew.lsq.thread0: SQ size: 128, #stores occupied: 0
  91000: system.cpu.iew.lsq.thread0: LQ size: 128, #loads occupied: 0
  91000: system.cpu.iew: IQ has 64 free entries (Can schedule: 0).  LQ has 128 free entries. SQ has 128 free entries.
  91000: system.cpu.rob: [tid:0] Checking if head is ready. ROB size=3
. HEAD SN=1  91000: system.cpu.rob: [tid:0] Reading Head Instr.
  91000: system.cpu.rob: [tid:0] Reading Head Instr.
  91500: system.cpu.iew: Issue: Processing [tid:0]
  91500: system.cpu.iew: [tid:0] Not blocked, so attempting to run dispatch.
  91500: system.cpu.iew: Execute: Executing instructions from IQ.
  91500: system.cpu.iew: Execute: Processing PC (0x401ef4=>0x401ef8).(0=>1), [tid:0] [sn:1].
  91500: global: RegFile: Setting int register 42 to 0
  91500: system.cpu.iew: Current wb cycle: 0, width: 8, numInst: 0
wbActual:0
  91500: system.cpu.iew: Execute: Executing instructions from IQ.
  91500: system.cpu.iew: Execute: Processing PC (0x401ef8=>0x401efc).(0=>1), [tid:0] [sn:2].
  91500: global: RegFile: Setting int register 43 to 0
  91500: system.cpu.iew: Current wb cycle: 0, width: 8, numInst: 1
wbActual:1
  91500: system.cpu.iew: Execute: Executing instructions from IQ.
  91500: system.cpu.iew: Execute: Processing PC (0x401efc=>0x401f00).(0=>1), [tid:0] [sn:3].
  91500: global: RegFile: Access to int register 0, has data 0
  91500: global: RegFile: Setting int register 44 to 0
  91500: system.cpu.iew: Current wb cycle: 0, width: 8, numInst: 2
wbActual:2
  91500: system.cpu.iew: Sending instructions to commit, [sn:1] PC (0x401ef4=>0x401ef8).(0=>1).
  91500: system.cpu.iq: Waking dependents of completed instruction.
  91500: system.cpu.iq: Waking any dependents on register 42 (IntRegClass).
  91500: system.cpu.iew: Setting Destination Register 42 (IntRegClass)
  91500: system.cpu.iew: Sending instructions to commit, [sn:2] PC (0x401ef8=>0x401efc).(0=>1).
  91500: system.cpu.iq: Waking dependents of completed instruction.
  91500: system.cpu.iq: Waking any dependents on register 43 (IntRegClass).
  91500: system.cpu.iew: Setting Destination Register 43 (IntRegClass)
  91500: system.cpu.iew: Sending instructions to commit, [sn:3] PC (0x401efc=>0x401f00).(0=>1).
  91500: system.cpu.iq: Waking dependents of completed instruction.
  91500: system.cpu.iq: Waking any dependents on register 44 (IntRegClass).
  91500: system.cpu.iew: Setting Destination Register 44 (IntRegClass)
  91500: system.cpu.iq: Attempting to schedule ready instructions from the IQ.
  91500: system.cpu.iq: Not able to schedule any instructions.
  91500: system.cpu.iew: Processing [tid:0]
  91500: system.cpu.iew.lsq.thread0: LQ size: 128, #loads occupied: 0
  91500: system.cpu.iew.lsq.thread0: SQ size: 128, #stores occupied: 0
  91500: system.cpu.iew: [tid:0], Dispatch dispatched 0 instructions.
  91500: system.cpu.iew.lsq.thread0: SQ size: 128, #stores occupied: 0
  91500: system.cpu.iew.lsq.thread0: LQ size: 128, #loads occupied: 0
  91500: system.cpu.iew: IQ has 64 free entries (Can schedule: 0).  LQ has 128 free entries. SQ has 128 free entries.
  91500: system.cpu.rob: [tid:0] Checking if head is ready. ROB size=3
. HEAD SN=1  91500: system.cpu.rob: [tid:0] Reading Head Instr.
  91500: system.cpu.rob: [tid:0] Reading Head Instr.
  92000: system.cpu.iew: Issue: Processing [tid:0]
  92000: system.cpu.iew: [tid:0] Not blocked, so attempting to run dispatch.
  92000: system.cpu.iq: Attempting to schedule ready instructions from the IQ.
  92000: system.cpu.iq: Not able to schedule any instructions.
  92000: system.cpu.iew: Processing [tid:0]
  92000: system.cpu.iew: [tid:0], Dispatch dispatched 0 instructions.
  92000: system.cpu.iew.lsq.thread0: SQ size: 128, #stores occupied: 0
  92000: system.cpu.iew.lsq.thread0: LQ size: 128, #loads occupied: 0
  92000: system.cpu.iew: IQ has 64 free entries (Can schedule: 0).  LQ has 128 free entries. SQ has 128 free entries.
  92000: system.cpu.rob: [tid:0] Checking if head is ready. ROB size=3
. HEAD SN=1  92000: system.cpu.rob: [tid:0] Reading Head Instr.
  92000: system.cpu.rob: [tid:0] Reading Head Instr.
  92500: system.cpu.iew: Issue: Processing [tid:0]
  92500: system.cpu.iew: [tid:0] Not blocked, so attempting to run dispatch.
  92500: system.cpu.iq: Attempting to schedule ready instructions from the IQ.
  92500: system.cpu.iq: Not able to schedule any instructions.
  92500: system.cpu.iew: Processing [tid:0]
  92500: system.cpu.iew: [tid:0], Dispatch dispatched 0 instructions.
  92500: system.cpu.iew.lsq.thread0: SQ size: 128, #stores occupied: 0
  92500: system.cpu.iew.lsq.thread0: LQ size: 128, #loads occupied: 0
  92500: system.cpu.iew: IQ has 64 free entries (Can schedule: 0).  LQ has 128 free entries. SQ has 128 free entries.
  92500: system.cpu.rob: [tid:0] Checking if head is ready. ROB size=3
. HEAD SN=1  92500: system.cpu.rob: [tid:0] Reading Head Instr.
  92500: system.cpu.rob: [tid:0] Retiring head instruction, instruction PC (0x401ef4=>0x401ef8).(0=>1), [sn:1]
  92500: system.cpu.rob: Updating global head ptr.
  92500: system.cpu.rob: [tid:0] Checking if head is ready. ROB size=2
. HEAD SN=2  92500: system.cpu.rob: [tid:0] Reading Head Instr.
  92500: system.cpu.rob: [tid:0] Retiring head instruction, instruction PC (0x401ef8=>0x401efc).(0=>1), [sn:2]
  92500: system.cpu.rob: Updating global head ptr.
  92500: system.cpu.rob: [tid:0] Checking if head is ready. ROB size=1
. HEAD SN=3  92500: system.cpu.rob: [tid:0] Reading Head Instr.
  92500: system.cpu.rob: [tid:0] Retiring head instruction, instruction PC (0x401efc=>0x401f00).(0=>1), [sn:3]
  92500: system.cpu.rob: Updating global head ptr.
  93000: system.cpu.iew: Issue: Processing [tid:0]
  93000: system.cpu.iew: [tid:0] Not blocked, so attempting to run dispatch.
  93000: system.cpu.iq: Attempting to schedule ready instructions from the IQ.
  93000: system.cpu.iq: Not able to schedule any instructions.
  93000: system.cpu.iew: Processing [tid:0]
  93000: system.cpu.iq: [tid:0] Committing instructions older than [sn:3]
  93000: system.cpu.iew: [tid:0], Dispatch dispatched 0 instructions.
  93000: system.cpu.iew.lsq.thread0: SQ size: 128, #stores occupied: 0
  93000: system.cpu.iew.lsq.thread0: LQ size: 128, #loads occupied: 0
  93000: system.cpu.iew: IQ has 64 free entries (Can schedule: 0).  LQ has 128 free entries. SQ has 128 free entries.
  93500: system.cpu.iew: Issue: Processing [tid:0]
  93500: system.cpu.iew: [tid:0] Not blocked, so attempting to run dispatch.
  93500: system.cpu.iq: Attempting to schedule ready instructions from the IQ.
  93500: system.cpu.iq: Not able to schedule any instructions.
  93500: system.cpu.iew: Processing [tid:0]
  93500: system.cpu.iew.lsq.thread0: LQ size: 128, #loads occupied: 0
  93500: system.cpu.iew.lsq.thread0: SQ size: 128, #stores occupied: 0
  93500: system.cpu.iew: [tid:0], Dispatch dispatched 0 instructions.
  93500: system.cpu.iew.lsq.thread0: SQ size: 128, #stores occupied: 0
  93500: system.cpu.iew.lsq.thread0: LQ size: 128, #loads occupied: 0
  93500: system.cpu.iew: IQ has 64 free entries (Can schedule: 0).  LQ has 128 free entries. SQ has 128 free entries.
  94000: system.cpu.iew: Issue: Processing [tid:0]
  94000: system.cpu.iew: [tid:0] Not blocked, so attempting to run dispatch.
  94000: system.cpu.iq: Attempting to schedule ready instructions from the IQ.
  94000: system.cpu.iq: Not able to schedule any instructions.
  94000: system.cpu.iew: Processing [tid:0]
  94000: system.cpu.iew: [tid:0], Dispatch dispatched 0 instructions.
  94000: system.cpu.iew.lsq.thread0: SQ size: 128, #stores occupied: 0
  94000: system.cpu.iew.lsq.thread0: LQ size: 128, #loads occupied: 0
  94000: system.cpu.iew: IQ has 64 free entries (Can schedule: 0).  LQ has 128 free entries. SQ has 128 free entries.
  94500: system.cpu.iew: Issue: Processing [tid:0]
  94500: system.cpu.iew: [tid:0] Not blocked, so attempting to run dispatch.
  94500: system.cpu.iq: Attempting to schedule ready instructions from the IQ.
  94500: system.cpu.iq: Not able to schedule any instructions.
  94500: system.cpu.iew: Processing [tid:0]
  94500: system.cpu.iew: [tid:0], Dispatch dispatched 0 instructions.
  94500: system.cpu.iew.lsq.thread0: SQ size: 128, #stores occupied: 0
  94500: system.cpu.iew.lsq.thread0: LQ size: 128, #loads occupied: 0
  94500: system.cpu.iew: IQ has 64 free entries (Can schedule: 0).  LQ has 128 free entries. SQ has 128 free entries.
  95000: system.cpu.iew: Issue: Processing [tid:0]
  95000: system.cpu.iew: [tid:0] Not blocked, so attempting to run dispatch.
  95000: system.cpu.iq: Attempting to schedule ready instructions from the IQ.
  95000: system.cpu.iq: Not able to schedule any instructions.
  95000: system.cpu.iew: Processing [tid:0]
  95000: system.cpu.iew: [tid:0], Dispatch dispatched 0 instructions.
  95000: system.cpu.iew.lsq.thread0: SQ size: 128, #stores occupied: 0
  95000: system.cpu.iew.lsq.thread0: LQ size: 128, #loads occupied: 0
  95000: system.cpu.iew: IQ has 64 free entries (Can schedule: 0).  LQ has 128 free entries. SQ has 128 free entries.
  95500: system.cpu.iew: Issue: Processing [tid:0]
  95500: system.cpu.iew: [tid:0] Not blocked, so attempting to run dispatch.
  95500: system.cpu.iq: Attempting to schedule ready instructions from the IQ.
  95500: system.cpu.iq: Not able to schedule any instructions.
  95500: system.cpu.iew: Processing [tid:0]
  95500: system.cpu.iew: [tid:0], Dispatch dispatched 0 instructions.
  95500: system.cpu.iew.lsq.thread0: SQ size: 128, #stores occupied: 0
  95500: system.cpu.iew.lsq.thread0: LQ size: 128, #loads occupied: 0
  95500: system.cpu.iew: IQ has 64 free entries (Can schedule: 0).  LQ has 128 free entries. SQ has 128 free entries.
  96000: system.cpu.iew: Issue: Processing [tid:0]
  96000: system.cpu.iew: [tid:0] Not blocked, so attempting to run dispatch.
  96000: system.cpu.iq: Attempting to schedule ready instructions from the IQ.
  96000: system.cpu.iq: Not able to schedule any instructions.
  96000: system.cpu.iew: Processing [tid:0]
  96000: system.cpu.iew: [tid:0], Dispatch dispatched 0 instructions.
  96000: system.cpu.iew.lsq.thread0: SQ size: 128, #stores occupied: 0
  96000: system.cpu.iew.lsq.thread0: LQ size: 128, #loads occupied: 0
  96000: system.cpu.iew: IQ has 64 free entries (Can schedule: 0).  LQ has 128 free entries. SQ has 128 free entries.
  96500: system.cpu.iew: Issue: Processing [tid:0]
  96500: system.cpu.iew: [tid:0] Not blocked, so attempting to run dispatch.
  96500: system.cpu.iq: Attempting to schedule ready instructions from the IQ.
  96500: system.cpu.iq: Not able to schedule any instructions.
  96500: system.cpu.iew: Processing [tid:0]
  96500: system.cpu.iew: [tid:0], Dispatch dispatched 0 instructions.
  96500: system.cpu.iew.lsq.thread0: SQ size: 128, #stores occupied: 0
  96500: system.cpu.iew.lsq.thread0: LQ size: 128, #loads occupied: 0
  96500: system.cpu.iew: IQ has 64 free entries (Can schedule: 0).  LQ has 128 free entries. SQ has 128 free entries.
  97000: system.cpu.iew: Issue: Processing [tid:0]
  97000: system.cpu.iew: [tid:0] Not blocked, so attempting to run dispatch.
  97000: system.cpu.iq: Attempting to schedule ready instructions from the IQ.
  97000: system.cpu.iq: Not able to schedule any instructions.
  97000: system.cpu.iew: Processing [tid:0]
  97000: system.cpu.iew: [tid:0], Dispatch dispatched 0 instructions.
  97000: system.cpu.iew.lsq.thread0: SQ size: 128, #stores occupied: 0
  97000: system.cpu.iew.lsq.thread0: LQ size: 128, #loads occupied: 0
  97000: system.cpu.iew: IQ has 64 free entries (Can schedule: 0).  LQ has 128 free entries. SQ has 128 free entries.
  97500: system.cpu.iew: Issue: Processing [tid:0]
  97500: system.cpu.iew: [tid:0] Not blocked, so attempting to run dispatch.
  97500: system.cpu.iq: Attempting to schedule ready instructions from the IQ.
  97500: system.cpu.iq: Not able to schedule any instructions.
  97500: system.cpu.iew: Processing [tid:0]
  97500: system.cpu.iew: [tid:0], Dispatch dispatched 0 instructions.
  97500: system.cpu.iew.lsq.thread0: SQ size: 128, #stores occupied: 0
  97500: system.cpu.iew.lsq.thread0: LQ size: 128, #loads occupied: 0
  97500: system.cpu.iew: IQ has 64 free entries (Can schedule: 0).  LQ has 128 free entries. SQ has 128 free entries.
  98000: system.cpu.iew: Issue: Processing [tid:0]
  98000: system.cpu.iew: [tid:0] Not blocked, so attempting to run dispatch.
  98000: system.cpu.iq: Attempting to schedule ready instructions from the IQ.
  98000: system.cpu.iq: Not able to schedule any instructions.
  98000: system.cpu.iew: Processing [tid:0]
  98000: system.cpu.iew: [tid:0], Dispatch dispatched 0 instructions.
  98000: system.cpu.iew.lsq.thread0: SQ size: 128, #stores occupied: 0
  98000: system.cpu.iew.lsq.thread0: LQ size: 128, #loads occupied: 0
  98000: system.cpu.iew: IQ has 64 free entries (Can schedule: 0).  LQ has 128 free entries. SQ has 128 free entries.
  98500: system.cpu.iew: Issue: Processing [tid:0]
  98500: system.cpu.iew: [tid:0] Not blocked, so attempting to run dispatch.
  98500: system.cpu.iq: Attempting to schedule ready instructions from the IQ.
  98500: system.cpu.iq: Not able to schedule any instructions.
  98500: system.cpu.iew: Processing [tid:0]
  98500: system.cpu.iew: [tid:0], Dispatch dispatched 0 instructions.
  98500: system.cpu.iew.lsq.thread0: SQ size: 128, #stores occupied: 0
  98500: system.cpu.iew.lsq.thread0: LQ size: 128, #loads occupied: 0
  98500: system.cpu.iew: IQ has 64 free entries (Can schedule: 0).  LQ has 128 free entries. SQ has 128 free entries.
 161500: system.cpu.iew: Issue: Processing [tid:0]
 161500: system.cpu.iew: [tid:0] Not blocked, so attempting to run dispatch.
 161500: system.cpu.iq: Attempting to schedule ready instructions from the IQ.
 161500: system.cpu.iq: Not able to schedule any instructions.
 161500: system.cpu.iew: Processing [tid:0]
 161500: system.cpu.iew: [tid:0], Dispatch dispatched 0 instructions.
 161500: system.cpu.iew.lsq.thread0: SQ size: 128, #stores occupied: 0
 161500: system.cpu.iew.lsq.thread0: LQ size: 128, #loads occupied: 0
 161500: system.cpu.iew: IQ has 64 free entries (Can schedule: 0).  LQ has 128 free entries. SQ has 128 free entries.
 162000: system.cpu.iew: Issue: Processing [tid:0]
 162000: system.cpu.iew: [tid:0] Not blocked, so attempting to run dispatch.
 162000: system.cpu.iq: Attempting to schedule ready instructions from the IQ.
 162000: system.cpu.iq: Not able to schedule any instructions.
 162000: system.cpu.iew: Processing [tid:0]
 162000: system.cpu.iew: [tid:0], Dispatch dispatched 0 instructions.
 162000: system.cpu.iew.lsq.thread0: SQ size: 128, #stores occupied: 0
 162000: system.cpu.iew.lsq.thread0: LQ size: 128, #loads occupied: 0
 162000: system.cpu.iew: IQ has 64 free entries (Can schedule: 0).  LQ has 128 free entries. SQ has 128 free entries.
 162500: global: [sn:4] has 1 ready out of 1 sources. RTI 0)
 162500: global: [sn:5] has 1 ready out of 1 sources. RTI 0)
 162500: global: [sn:6] has 1 ready out of 1 sources. RTI 0)
 162500: system.cpu.iew: Issue: Processing [tid:0]
 162500: system.cpu.iew: [tid:0] Not blocked, so attempting to run dispatch.
 162500: system.cpu.iq: Attempting to schedule ready instructions from the IQ.
 162500: system.cpu.iq: Not able to schedule any instructions.
 162500: system.cpu.iew: Processing [tid:0]
 162500: system.cpu.iew: [tid:0], Dispatch dispatched 0 instructions.
 162500: system.cpu.iew.lsq.thread0: SQ size: 128, #stores occupied: 0
 162500: system.cpu.iew.lsq.thread0: LQ size: 128, #loads occupied: 0
 162500: system.cpu.iew: IQ has 64 free entries (Can schedule: 0).  LQ has 128 free entries. SQ has 128 free entries.
 163000: system.cpu.iew: Issue: Processing [tid:0]
 163000: system.cpu.iew: [tid:0] Not blocked, so attempting to run dispatch.
 163000: system.cpu.iq: Attempting to schedule ready instructions from the IQ.
 163000: system.cpu.iq: Not able to schedule any instructions.
 163000: system.cpu.iew: Processing [tid:0]
 163000: system.cpu.iew: [tid:0], Dispatch dispatched 0 instructions.
 163000: system.cpu.iew.lsq.thread0: SQ size: 128, #stores occupied: 0
 163000: system.cpu.iew.lsq.thread0: LQ size: 128, #loads occupied: 0
 163000: system.cpu.iew: IQ has 64 free entries (Can schedule: 0).  LQ has 128 free entries. SQ has 128 free entries.
 163000: system.cpu.rob: Adding inst PC (0x401f00=>0x401f04).(0=>1) to the ROB.
 163000: system.cpu.rob: [tid:0] Now has 1 instructions.
 163000: system.cpu.rob: Adding inst PC (0x401f04=>0x401f08).(0=>1) to the ROB.
 163000: system.cpu.rob: [tid:0] Now has 2 instructions.
 163000: system.cpu.rob: Adding inst PC (0x401f08=>0x401f0c).(0=>1) to the ROB.
 163000: system.cpu.rob: [tid:0] Now has 3 instructions.
 163000: system.cpu.rob: Adding inst PC (0x401f0c=>0x401f10).(0=>1) to the ROB.
 163000: system.cpu.rob: [tid:0] Now has 4 instructions.
 163000: system.cpu.rob: Adding inst PC (0x401f10=>0x401f14).(0=>1) to the ROB.
 163000: system.cpu.rob: [tid:0] Now has 5 instructions.
 163000: system.cpu.rob: Adding inst PC (0x401f14=>0x401f18).(0=>1) to the ROB.
 163000: system.cpu.rob: [tid:0] Now has 6 instructions.
 163000: system.cpu.rob: Adding inst PC (0x401f18=>0x401f1c).(0=>1) to the ROB.
 163000: system.cpu.rob: [tid:0] Now has 7 instructions.
 163000: system.cpu.rob: Adding inst PC (0x401f1c=>0x401f20).(0=>1) to the ROB.
 163000: system.cpu.rob: [tid:0] Now has 8 instructions.
 163000: system.cpu.rob: [tid:0] Checking if head is ready. ROB size=8
. HEAD SN=4 163000: system.cpu.rob: [tid:0] Reading Head Instr.
 163000: system.cpu.rob: [tid:0] Reading Head Instr.
 163500: system.cpu.iew: Issue: Processing [tid:0]
 163500: system.cpu.iew: [tid:0] Not blocked, so attempting to run dispatch.
 163500: system.cpu.iew: [tid:0] Issue: Adding PC (0x401f00=>0x401f04).(0=>1) [sn:4] [tid:0] to IQ.
 163500: system.cpu.iew: [tid:0] Issue: Memory instruction encountered, adding to LSQ.
 163500: system.cpu.iew.lsq.thread0: Inserting load PC (0x401f00=>0x401f04).(0=>1), idx:0 [sn:4]
 163500: system.cpu.iq: Adding instruction [sn:4] PC (0x401f00=>0x401f04).(0=>1) to the IQ.
 163500: system.cpu.iq: Instruction PC (0x401f00=>0x401f04).(0=>1) has dest reg 45 (IntRegClass) that is being added as the producer to the dependency chain.
 163500: system.cpu.iq: Instruction is ready to issue, putting it onto the ready list, PC (0x401f00=>0x401f04).(0=>1) opclass:47 [sn:4].
 163500: system.cpu.iew: [tid:0] Issue: Adding PC (0x401f04=>0x401f08).(0=>1) [sn:5] [tid:0] to IQ.
 163500: system.cpu.iq: Adding instruction [sn:5] PC (0x401f04=>0x401f08).(0=>1) to the IQ.
 163500: system.cpu.iq: Instruction PC (0x401f04=>0x401f08).(0=>1) has dest reg 46 (IntRegClass) that is being added as the producer to the dependency chain.
 163500: system.cpu.iq: Instruction is ready to issue, putting it onto the ready list, PC (0x401f04=>0x401f08).(0=>1) opclass:1 [sn:5].
 163500: system.cpu.iew: [tid:0] Issue: Adding PC (0x401f08=>0x401f0c).(0=>1) [sn:6] [tid:0] to IQ.
 163500: system.cpu.iq: Adding instruction [sn:6] PC (0x401f08=>0x401f0c).(0=>1) to the IQ.
 163500: system.cpu.iq: Instruction PC (0x401f08=>0x401f0c).(0=>1) has dest reg 47 (IntRegClass) that is being added as the producer to the dependency chain.
 163500: system.cpu.iq: Instruction is ready to issue, putting it onto the ready list, PC (0x401f08=>0x401f0c).(0=>1) opclass:1 [sn:6].
 163500: system.cpu.iew: [tid:0] Issue: Adding PC (0x401f0c=>0x401f10).(0=>1) [sn:7] [tid:0] to IQ.
 163500: system.cpu.iq: Adding instruction [sn:7] PC (0x401f0c=>0x401f10).(0=>1) to the IQ.
 163500: system.cpu.iq: Instruction PC (0x401f0c=>0x401f10).(0=>1) has dest reg 48 (IntRegClass) that is being added as the producer to the dependency chain.
 163500: system.cpu.iq: Instruction is ready to issue, putting it onto the ready list, PC (0x401f0c=>0x401f10).(0=>1) opclass:1 [sn:7].
 163500: system.cpu.iew: [tid:0] Issue: Adding PC (0x401f10=>0x401f14).(0=>1) [sn:8] [tid:0] to IQ.
 163500: system.cpu.iq: Adding instruction [sn:8] PC (0x401f10=>0x401f14).(0=>1) to the IQ.
 163500: system.cpu.iq: Instruction PC (0x401f10=>0x401f14).(0=>1) has src reg 48 (IntRegClass) that is being added to the dependency chain.
 163500: system.cpu.iq: Instruction PC (0x401f10=>0x401f14).(0=>1) has dest reg 49 (IntRegClass) that is being added as the producer to the dependency chain.
 163500: system.cpu.iew: [tid:0] Issue: Adding PC (0x401f14=>0x401f18).(0=>1) [sn:9] [tid:0] to IQ.
 163500: system.cpu.iq: Adding instruction [sn:9] PC (0x401f14=>0x401f18).(0=>1) to the IQ.
 163500: system.cpu.iq: Instruction PC (0x401f14=>0x401f18).(0=>1) has src reg 49 (IntRegClass) that is being added to the dependency chain.
 163500: system.cpu.iq: Instruction PC (0x401f14=>0x401f18).(0=>1) has dest reg 50 (IntRegClass) that is being added as the producer to the dependency chain.
 163500: system.cpu.iew: [tid:0] Issue: Adding PC (0x401f18=>0x401f1c).(0=>1) [sn:10] [tid:0] to IQ.
 163500: system.cpu.iq: Adding instruction [sn:10] PC (0x401f18=>0x401f1c).(0=>1) to the IQ.
 163500: system.cpu.iq: Instruction PC (0x401f18=>0x401f1c).(0=>1) has src reg 50 (IntRegClass) that is being added to the dependency chain.
 163500: system.cpu.iq: Instruction PC (0x401f18=>0x401f1c).(0=>1) has dest reg 51 (IntRegClass) that is being added as the producer to the dependency chain.
 163500: system.cpu.iew: [tid:0] Issue: Adding PC (0x401f1c=>0x401f20).(0=>1) [sn:11] [tid:0] to IQ.
 163500: system.cpu.iq: Adding instruction [sn:11] PC (0x401f1c=>0x401f20).(0=>1) to the IQ.
 163500: system.cpu.iq: Instruction PC (0x401f1c=>0x401f20).(0=>1) has dest reg 52 (IntRegClass) that is being added as the producer to the dependency chain.
 163500: system.cpu.iq: Instruction is ready to issue, putting it onto the ready list, PC (0x401f1c=>0x401f20).(0=>1) opclass:1 [sn:11].
 163500: system.cpu.iq: Attempting to schedule ready instructions from the IQ.
 163500: system.cpu.iq: Thread 0: Issuing instruction PC (0x401f00=>0x401f04).(0=>1) [sn:4]
 163500: system.cpu.iq: Thread 0: Issuing instruction PC (0x401f04=>0x401f08).(0=>1) [sn:5]
 163500: system.cpu.iq: Thread 0: Issuing instruction PC (0x401f08=>0x401f0c).(0=>1) [sn:6]
 163500: system.cpu.iq: Thread 0: Issuing instruction PC (0x401f0c=>0x401f10).(0=>1) [sn:7]
 163500: system.cpu.iq: Thread 0: Issuing instruction PC (0x401f1c=>0x401f20).(0=>1) [sn:11]
 163500: system.cpu.iew: Processing [tid:0]
 163500: system.cpu.iew: [tid:0], Dispatch dispatched 8 instructions.
 163500: system.cpu.iew.lsq.thread0: SQ size: 128, #stores occupied: 0
 163500: system.cpu.iew.lsq.thread0: LQ size: 128, #loads occupied: 1
 163500: system.cpu.iew: IQ has 60 free entries (Can schedule: 0).  LQ has 127 free entries. SQ has 128 free entries.
 163500: system.cpu.rob: Adding inst PC (0x401f20=>0x401f24).(0=>1) to the ROB.
 163500: system.cpu.rob: [tid:0] Now has 9 instructions.
 163500: system.cpu.rob: Adding inst PC (0x401f24=>0x401f28).(0=>1) to the ROB.
 163500: system.cpu.rob: [tid:0] Now has 10 instructions.
 163500: system.cpu.rob: Adding inst PC (0x401f28=>0x401f2c).(0=>1) to the ROB.
 163500: system.cpu.rob: [tid:0] Now has 11 instructions.
 163500: system.cpu.rob: Adding inst PC (0x401f2c=>0x401f30).(0=>1) to the ROB.
 163500: system.cpu.rob: [tid:0] Now has 12 instructions.
 163500: system.cpu.rob: Adding inst PC (0x401f30=>0x401f34).(0=>1) to the ROB.
 163500: system.cpu.rob: [tid:0] Now has 13 instructions.
 163500: system.cpu.rob: Adding inst PC (0x401f34=>0x401f38).(0=>1) to the ROB.
 163500: system.cpu.rob: [tid:0] Now has 14 instructions.
 163500: system.cpu.rob: Adding inst PC (0x401f38=>0x401f3c).(0=>1) to the ROB.
 163500: system.cpu.rob: [tid:0] Now has 15 instructions.
 163500: system.cpu.rob: Adding inst PC (0x401f3c=>0x401f40).(0=>1) to the ROB.
 163500: system.cpu.rob: [tid:0] Now has 16 instructions.
 163500: system.cpu.rob: [tid:0] Checking if head is ready. ROB size=16
. HEAD SN=4 163500: system.cpu.rob: [tid:0] Reading Head Instr.
 163500: system.cpu.rob: [tid:0] Reading Head Instr.
 164000: system.cpu.iew: Issue: Processing [tid:0]
 164000: system.cpu.iew: [tid:0] Not blocked, so attempting to run dispatch.
 164000: system.cpu.iew: [tid:0] Issue: Adding PC (0x401f20=>0x401f24).(0=>1) [sn:12] [tid:0] to IQ.
 164000: system.cpu.iq: Adding instruction [sn:12] PC (0x401f20=>0x401f24).(0=>1) to the IQ.
 164000: system.cpu.iq: Instruction PC (0x401f20=>0x401f24).(0=>1) has src reg 52 (IntRegClass) that is being added to the dependency chain.
 164000: system.cpu.iq: Instruction PC (0x401f20=>0x401f24).(0=>1) has dest reg 53 (IntRegClass) that is being added as the producer to the dependency chain.
 164000: system.cpu.iew: [tid:0] Issue: Adding PC (0x401f24=>0x401f28).(0=>1) [sn:13] [tid:0] to IQ.
 164000: system.cpu.iq: Adding instruction [sn:13] PC (0x401f24=>0x401f28).(0=>1) to the IQ.
 164000: system.cpu.iq: Instruction PC (0x401f24=>0x401f28).(0=>1) has src reg 53 (IntRegClass) that is being added to the dependency chain.
 164000: system.cpu.iq: Instruction PC (0x401f24=>0x401f28).(0=>1) has dest reg 54 (IntRegClass) that is being added as the producer to the dependency chain.
 164000: system.cpu.iew: [tid:0] Issue: Adding PC (0x401f28=>0x401f2c).(0=>1) [sn:14] [tid:0] to IQ.
 164000: system.cpu.iq: Adding instruction [sn:14] PC (0x401f28=>0x401f2c).(0=>1) to the IQ.
 164000: system.cpu.iq: Instruction PC (0x401f28=>0x401f2c).(0=>1) has src reg 54 (IntRegClass) that is being added to the dependency chain.
 164000: system.cpu.iq: Instruction PC (0x401f28=>0x401f2c).(0=>1) has dest reg 55 (IntRegClass) that is being added as the producer to the dependency chain.
 164000: system.cpu.iew: [tid:0] Issue: Adding PC (0x401f2c=>0x401f30).(0=>1) [sn:15] [tid:0] to IQ.
 164000: system.cpu.iq: Adding instruction [sn:15] PC (0x401f2c=>0x401f30).(0=>1) to the IQ.
 164000: system.cpu.iq: Instruction PC (0x401f2c=>0x401f30).(0=>1) has dest reg 56 (IntRegClass) that is being added as the producer to the dependency chain.
 164000: system.cpu.iq: Instruction is ready to issue, putting it onto the ready list, PC (0x401f2c=>0x401f30).(0=>1) opclass:1 [sn:15].
 164000: system.cpu.iew: [tid:0] Issue: Adding PC (0x401f30=>0x401f34).(0=>1) [sn:16] [tid:0] to IQ.
 164000: system.cpu.iq: Adding instruction [sn:16] PC (0x401f30=>0x401f34).(0=>1) to the IQ.
 164000: system.cpu.iq: Instruction PC (0x401f30=>0x401f34).(0=>1) has src reg 56 (IntRegClass) that is being added to the dependency chain.
 164000: system.cpu.iq: Instruction PC (0x401f30=>0x401f34).(0=>1) has dest reg 57 (IntRegClass) that is being added as the producer to the dependency chain.
 164000: system.cpu.iew: [tid:0] Issue: Adding PC (0x401f34=>0x401f38).(0=>1) [sn:17] [tid:0] to IQ.
 164000: system.cpu.iq: Adding instruction [sn:17] PC (0x401f34=>0x401f38).(0=>1) to the IQ.
 164000: system.cpu.iq: Instruction PC (0x401f34=>0x401f38).(0=>1) has src reg 57 (IntRegClass) that is being added to the dependency chain.
 164000: system.cpu.iq: Instruction PC (0x401f34=>0x401f38).(0=>1) has dest reg 58 (IntRegClass) that is being added as the producer to the dependency chain.
 164000: system.cpu.iew: [tid:0] Issue: Adding PC (0x401f38=>0x401f3c).(0=>1) [sn:18] [tid:0] to IQ.
 164000: system.cpu.iq: Adding instruction [sn:18] PC (0x401f38=>0x401f3c).(0=>1) to the IQ.
 164000: system.cpu.iq: Instruction PC (0x401f38=>0x401f3c).(0=>1) has src reg 58 (IntRegClass) that is being added to the dependency chain.
 164000: system.cpu.iq: Instruction PC (0x401f38=>0x401f3c).(0=>1) has dest reg 59 (IntRegClass) that is being added as the producer to the dependency chain.
 164000: system.cpu.iew: [tid:0] Issue: Adding PC (0x401f3c=>0x401f40).(0=>1) [sn:19] [tid:0] to IQ.
 164000: system.cpu.iq: Adding instruction [sn:19] PC (0x401f3c=>0x401f40).(0=>1) to the IQ.
 164000: system.cpu.iq: Instruction PC (0x401f3c=>0x401f40).(0=>1) has dest reg 60 (IntRegClass) that is being added as the producer to the dependency chain.
 164000: system.cpu.iq: Instruction is ready to issue, putting it onto the ready list, PC (0x401f3c=>0x401f40).(0=>1) opclass:1 [sn:19].
 164000: system.cpu.iew: Execute: Executing instructions from IQ.
 164000: system.cpu.iew: Execute: Processing PC (0x401f00=>0x401f04).(0=>1), [tid:0] [sn:4].
 164000: system.cpu.iew: Execute: Calculating address for memory reference.
 164000: system.cpu.iew.lsq.thread0: Executing load PC (0x401f00=>0x401f04).(0=>1), [sn:4]
 164000: global: RegFile: Access to int register 38, has data 0x7ffffefda0
 164000: system.cpu.iew.lsq.thread0: Read called, load idx: 0, store idx: 1, storeHead: 0 addr: 0x320da0
 164000: system.cpu.iew.lsq.thread0: Doing memory access for inst [sn:4] PC (0x401f00=>0x401f04).(0=>1)
 164000: system.cpu.iew.lsq.thread0: Memory request (pkt: ReadReq [320da0:320da7]) from inst [sn:4] was sent (cache is blocked: 0, cache_got_blocked: 0)
 164000: system.cpu.iew.lsq.thread0: Package sent to cache
 164000: system.cpu.iew.lsq.thread0: Package sent successfully
 164000: system.cpu.rob: [tid:0] Assigned WIB Load Vector Pointer: 0
 164000: system.cpu.iew.lsq.thread0: Got load vector index from WIB
 164000: system.cpu.iew.lsq.thread0: Setting Destination Register wait bit 45 (IntRegClass) with WIB Index (0)
 164000: system.cpu.iew.lsq.thread0: Waking dependents of the missed load instruction 164000: system.cpu.iew: Execute: Executing instructions from IQ.
 164000: system.cpu.iew: Execute: Processing PC (0x401f04=>0x401f08).(0=>1), [tid:0] [sn:5].
 164000: global: RegFile: Access to int register 38, has data 0x7ffffefda0
 164000: global: RegFile: Setting int register 46 to 0x7ffffefda8
 164000: system.cpu.iew: Current wb cycle: 0, width: 8, numInst: 0
wbActual:0
 164000: system.cpu.iew: Execute: Executing instructions from IQ.
 164000: system.cpu.iew: Execute: Processing PC (0x401f08=>0x401f0c).(0=>1), [tid:0] [sn:6].
 164000: global: RegFile: Access to int register 38, has data 0x7ffffefda0
 164000: global: RegFile: Setting int register 47 to 0x7ffffefda0
 164000: system.cpu.iew: Current wb cycle: 0, width: 8, numInst: 1
wbActual:1
 164000: system.cpu.iew: Execute: Executing instructions from IQ.
 164000: system.cpu.iew: Execute: Processing PC (0x401f0c=>0x401f10).(0=>1), [tid:0] [sn:7].
 164000: global: RegFile: Setting int register 48 to 0
 164000: system.cpu.iew: Current wb cycle: 0, width: 8, numInst: 2
wbActual:2
 164000: system.cpu.iew: Execute: Executing instructions from IQ.
 164000: system.cpu.iew: Execute: Processing PC (0x401f1c=>0x401f20).(0=>1), [tid:0] [sn:11].
 164000: global: RegFile: Setting int register 52 to 0
 164000: system.cpu.iew: Current wb cycle: 0, width: 8, numInst: 3
wbActual:3
 164000: system.cpu.iew: Sending instructions to commit, [sn:5] PC (0x401f04=>0x401f08).(0=>1).
 164000: system.cpu.iq: Waking dependents of completed instruction.
 164000: system.cpu.iq: Waking any dependents on register 46 (IntRegClass).
 164000: system.cpu.iew: Setting Destination Register 46 (IntRegClass)
 164000: system.cpu.iew: Sending instructions to commit, [sn:6] PC (0x401f08=>0x401f0c).(0=>1).
 164000: system.cpu.iq: Waking dependents of completed instruction.
 164000: system.cpu.iq: Waking any dependents on register 47 (IntRegClass).
 164000: system.cpu.iew: Setting Destination Register 47 (IntRegClass)
 164000: system.cpu.iew: Sending instructions to commit, [sn:7] PC (0x401f0c=>0x401f10).(0=>1).
 164000: system.cpu.iq: Waking dependents of completed instruction.
 164000: system.cpu.iq: Waking any dependents on register 48 (IntRegClass).
 164000: system.cpu.iq: Waking up a dependent instruction, [sn:8] PC (0x401f10=>0x401f14).(0=>1).
 164000: global: [sn:8] has 1 ready out of 1 sources. RTI 0)
 164000: system.cpu.iq: Instruction is ready to issue, putting it onto the ready list, PC (0x401f10=>0x401f14).(0=>1) opclass:1 [sn:8].
 164000: system.cpu.iew: Setting Destination Register 48 (IntRegClass)
 164000: system.cpu.iew: Sending instructions to commit, [sn:11] PC (0x401f1c=>0x401f20).(0=>1).
 164000: system.cpu.iq: Waking dependents of completed instruction.
 164000: system.cpu.iq: Waking any dependents on register 52 (IntRegClass).
 164000: system.cpu.iq: Waking up a dependent instruction, [sn:12] PC (0x401f20=>0x401f24).(0=>1).
 164000: global: [sn:12] has 1 ready out of 1 sources. RTI 0)
 164000: system.cpu.iq: Instruction is ready to issue, putting it onto the ready list, PC (0x401f20=>0x401f24).(0=>1) opclass:1 [sn:12].
 164000: system.cpu.iew: Setting Destination Register 52 (IntRegClass)
 164000: system.cpu.iq: Attempting to schedule ready instructions from the IQ.
 164000: system.cpu.iq: Thread 0: Issuing instruction PC (0x401f10=>0x401f14).(0=>1) [sn:8]
 164000: system.cpu.iq: Thread 0: Issuing instruction PC (0x401f20=>0x401f24).(0=>1) [sn:12]
 164000: system.cpu.iq: Thread 0: Issuing instruction PC (0x401f2c=>0x401f30).(0=>1) [sn:15]
 164000: system.cpu.iq: Thread 0: Issuing instruction PC (0x401f3c=>0x401f40).(0=>1) [sn:19]
 164000: system.cpu.iew: Processing [tid:0]
 164000: system.cpu.iew.lsq.thread0: LQ size: 128, #loads occupied: 1
 164000: system.cpu.iew.lsq.thread0: SQ size: 128, #stores occupied: 0
 164000: system.cpu.iew: [tid:0], Dispatch dispatched 8 instructions.
 164000: system.cpu.iew.lsq.thread0: SQ size: 128, #stores occupied: 0
 164000: system.cpu.iew.lsq.thread0: LQ size: 128, #loads occupied: 1
 164000: system.cpu.iew: IQ has 56 free entries (Can schedule: 0).  LQ has 127 free entries. SQ has 128 free entries.
 164000: system.cpu.rob: [tid:0] Checking if head is ready. ROB size=16
. HEAD SN=4 164000: system.cpu.rob: [tid:0] Reading Head Instr.
 164000: system.cpu.rob: [tid:0] Reading Head Instr.
 164500: system.cpu.iew: Issue: Processing [tid:0]
 164500: system.cpu.iew: [tid:0] Not blocked, so attempting to run dispatch.
 164500: system.cpu.iew: Execute: Executing instructions from IQ.
 164500: system.cpu.iew: Execute: Processing PC (0x401f10=>0x401f14).(0=>1), [tid:0] [sn:8].
 164500: global: RegFile: Access to int register 48, has data 0
 164500: global: RegFile: Setting int register 49 to 0
 164500: system.cpu.iew: Current wb cycle: 0, width: 8, numInst: 0
wbActual:0
 164500: system.cpu.iew: Execute: Executing instructions from IQ.
 164500: system.cpu.iew: Execute: Processing PC (0x401f20=>0x401f24).(0=>1), [tid:0] [sn:12].
 164500: global: RegFile: Access to int register 52, has data 0
 164500: global: RegFile: Setting int register 53 to 0
 164500: system.cpu.iew: Current wb cycle: 0, width: 8, numInst: 1
wbActual:1
 164500: system.cpu.iew: Execute: Executing instructions from IQ.
 164500: system.cpu.iew: Execute: Processing PC (0x401f2c=>0x401f30).(0=>1), [tid:0] [sn:15].
 164500: global: RegFile: Setting int register 56 to 0
 164500: system.cpu.iew: Current wb cycle: 0, width: 8, numInst: 2
wbActual:2
 164500: system.cpu.iew: Execute: Executing instructions from IQ.
 164500: system.cpu.iew: Execute: Processing PC (0x401f3c=>0x401f40).(0=>1), [tid:0] [sn:19].
 164500: global: RegFile: Setting int register 60 to 0x401f40
 164500: system.cpu.iew: Current wb cycle: 0, width: 8, numInst: 3
wbActual:3
 164500: system.cpu.iew: Sending instructions to commit, [sn:8] PC (0x401f10=>0x401f14).(0=>1).
 164500: system.cpu.iq: Waking dependents of completed instruction.
 164500: system.cpu.iq: Waking any dependents on register 49 (IntRegClass).
 164500: system.cpu.iq: Waking up a dependent instruction, [sn:9] PC (0x401f14=>0x401f18).(0=>1).
 164500: global: [sn:9] has 1 ready out of 1 sources. RTI 0)
 164500: system.cpu.iq: Instruction is ready to issue, putting it onto the ready list, PC (0x401f14=>0x401f18).(0=>1) opclass:1 [sn:9].
 164500: system.cpu.iew: Setting Destination Register 49 (IntRegClass)
 164500: system.cpu.iew: Sending instructions to commit, [sn:12] PC (0x401f20=>0x401f24).(0=>1).
 164500: system.cpu.iq: Waking dependents of completed instruction.
 164500: system.cpu.iq: Waking any dependents on register 53 (IntRegClass).
 164500: system.cpu.iq: Waking up a dependent instruction, [sn:13] PC (0x401f24=>0x401f28).(0=>1).
 164500: global: [sn:13] has 1 ready out of 1 sources. RTI 0)
 164500: system.cpu.iq: Instruction is ready to issue, putting it onto the ready list, PC (0x401f24=>0x401f28).(0=>1) opclass:1 [sn:13].
 164500: system.cpu.iew: Setting Destination Register 53 (IntRegClass)
 164500: system.cpu.iew: Sending instructions to commit, [sn:15] PC (0x401f2c=>0x401f30).(0=>1).
 164500: system.cpu.iq: Waking dependents of completed instruction.
 164500: system.cpu.iq: Waking any dependents on register 56 (IntRegClass).
 164500: system.cpu.iq: Waking up a dependent instruction, [sn:16] PC (0x401f30=>0x401f34).(0=>1).
 164500: global: [sn:16] has 1 ready out of 1 sources. RTI 0)
 164500: system.cpu.iq: Instruction is ready to issue, putting it onto the ready list, PC (0x401f30=>0x401f34).(0=>1) opclass:1 [sn:16].
 164500: system.cpu.iew: Setting Destination Register 56 (IntRegClass)
 164500: system.cpu.iew: Sending instructions to commit, [sn:19] PC (0x401f3c=>0x418500).(0=>1).
 164500: system.cpu.iq: Waking dependents of completed instruction.
 164500: system.cpu.iq: Waking any dependents on register 60 (IntRegClass).
 164500: system.cpu.iew: Setting Destination Register 60 (IntRegClass)
 164500: system.cpu.iq: Attempting to schedule ready instructions from the IQ.
 164500: system.cpu.iq: Thread 0: Issuing instruction PC (0x401f14=>0x401f18).(0=>1) [sn:9]
 164500: system.cpu.iq: Thread 0: Issuing instruction PC (0x401f24=>0x401f28).(0=>1) [sn:13]
 164500: system.cpu.iq: Thread 0: Issuing instruction PC (0x401f30=>0x401f34).(0=>1) [sn:16]
 164500: system.cpu.iew: Processing [tid:0]
 164500: system.cpu.iew.lsq.thread0: LQ size: 128, #loads occupied: 1
 164500: system.cpu.iew.lsq.thread0: SQ size: 128, #stores occupied: 0
 164500: system.cpu.iew: [tid:0], Dispatch dispatched 0 instructions.
 164500: system.cpu.iew.lsq.thread0: SQ size: 128, #stores occupied: 0
 164500: system.cpu.iew.lsq.thread0: LQ size: 128, #loads occupied: 1
 164500: system.cpu.iew: IQ has 59 free entries (Can schedule: 0).  LQ has 127 free entries. SQ has 128 free entries.
 164500: system.cpu.rob: [tid:0] Checking if head is ready. ROB size=16
. HEAD SN=4 164500: system.cpu.rob: [tid:0] Reading Head Instr.
 164500: system.cpu.rob: [tid:0] Reading Head Instr.
 165000: system.cpu.iew: Issue: Processing [tid:0]
 165000: system.cpu.iew: [tid:0] Not blocked, so attempting to run dispatch.
 165000: system.cpu.iew: Execute: Executing instructions from IQ.
 165000: system.cpu.iew: Execute: Processing PC (0x401f14=>0x401f18).(0=>1), [tid:0] [sn:9].
 165000: global: RegFile: Access to int register 49, has data 0
 165000: global: RegFile: Setting int register 50 to 0x400000
 165000: system.cpu.iew: Current wb cycle: 0, width: 8, numInst: 0
wbActual:0
 165000: system.cpu.iew: Execute: Executing instructions from IQ.
 165000: system.cpu.iew: Execute: Processing PC (0x401f24=>0x401f28).(0=>1), [tid:0] [sn:13].
 165000: global: RegFile: Access to int register 53, has data 0
 165000: global: RegFile: Setting int register 54 to 0x410000
 165000: system.cpu.iew: Current wb cycle: 0, width: 8, numInst: 1
wbActual:1
 165000: system.cpu.iew: Execute: Executing instructions from IQ.
 165000: system.cpu.iew: Execute: Processing PC (0x401f30=>0x401f34).(0=>1), [tid:0] [sn:16].
 165000: global: RegFile: Access to int register 56, has data 0
 165000: global: RegFile: Setting int register 57 to 0
 165000: system.cpu.iew: Current wb cycle: 0, width: 8, numInst: 2
wbActual:2
 165000: system.cpu.iew: Sending instructions to commit, [sn:9] PC (0x401f14=>0x401f18).(0=>1).
 165000: system.cpu.iq: Waking dependents of completed instruction.
 165000: system.cpu.iq: Waking any dependents on register 50 (IntRegClass).
 165000: system.cpu.iq: Waking up a dependent instruction, [sn:10] PC (0x401f18=>0x401f1c).(0=>1).
 165000: global: [sn:10] has 1 ready out of 1 sources. RTI 0)
 165000: system.cpu.iq: Instruction is ready to issue, putting it onto the ready list, PC (0x401f18=>0x401f1c).(0=>1) opclass:1 [sn:10].
 165000: system.cpu.iew: Setting Destination Register 50 (IntRegClass)
 165000: system.cpu.iew: Sending instructions to commit, [sn:13] PC (0x401f24=>0x401f28).(0=>1).
 165000: system.cpu.iq: Waking dependents of completed instruction.
 165000: system.cpu.iq: Waking any dependents on register 54 (IntRegClass).
 165000: system.cpu.iq: Waking up a dependent instruction, [sn:14] PC (0x401f28=>0x401f2c).(0=>1).
 165000: global: [sn:14] has 1 ready out of 1 sources. RTI 0)
 165000: system.cpu.iq: Instruction is ready to issue, putting it onto the ready list, PC (0x401f28=>0x401f2c).(0=>1) opclass:1 [sn:14].
 165000: system.cpu.iew: Setting Destination Register 54 (IntRegClass)
 165000: system.cpu.iew: Sending instructions to commit, [sn:16] PC (0x401f30=>0x401f34).(0=>1).
 165000: system.cpu.iq: Waking dependents of completed instruction.
 165000: system.cpu.iq: Waking any dependents on register 57 (IntRegClass).
 165000: system.cpu.iq: Waking up a dependent instruction, [sn:17] PC (0x401f34=>0x401f38).(0=>1).
 165000: global: [sn:17] has 1 ready out of 1 sources. RTI 0)
 165000: system.cpu.iq: Instruction is ready to issue, putting it onto the ready list, PC (0x401f34=>0x401f38).(0=>1) opclass:1 [sn:17].
 165000: system.cpu.iew: Setting Destination Register 57 (IntRegClass)
 165000: system.cpu.iq: Attempting to schedule ready instructions from the IQ.
 165000: system.cpu.iq: Thread 0: Issuing instruction PC (0x401f18=>0x401f1c).(0=>1) [sn:10]
 165000: system.cpu.iq: Thread 0: Issuing instruction PC (0x401f28=>0x401f2c).(0=>1) [sn:14]
 165000: system.cpu.iq: Thread 0: Issuing instruction PC (0x401f34=>0x401f38).(0=>1) [sn:17]
 165000: system.cpu.iew: Processing [tid:0]
 165000: system.cpu.iew.lsq.thread0: LQ size: 128, #loads occupied: 1
 165000: system.cpu.iew.lsq.thread0: SQ size: 128, #stores occupied: 0
 165000: system.cpu.iew: [tid:0], Dispatch dispatched 0 instructions.
 165000: system.cpu.iew.lsq.thread0: SQ size: 128, #stores occupied: 0
 165000: system.cpu.iew.lsq.thread0: LQ size: 128, #loads occupied: 1
 165000: system.cpu.iew: IQ has 62 free entries (Can schedule: 0).  LQ has 127 free entries. SQ has 128 free entries.
 165000: system.cpu.rob: [tid:0] Checking if head is ready. ROB size=16
. HEAD SN=4 165000: system.cpu.rob: [tid:0] Reading Head Instr.
 165000: system.cpu.rob: [tid:0] Reading Head Instr.
 165500: system.cpu.iew: Issue: Processing [tid:0]
 165500: system.cpu.iew: [tid:0] Not blocked, so attempting to run dispatch.
 165500: system.cpu.iew: Execute: Executing instructions from IQ.
 165500: system.cpu.iew: Execute: Processing PC (0x401f18=>0x401f1c).(0=>1), [tid:0] [sn:10].
 165500: global: RegFile: Access to int register 50, has data 0x400000
 165500: global: RegFile: Setting int register 51 to 0x400500
 165500: system.cpu.iew: Current wb cycle: 0, width: 8, numInst: 0
wbActual:0
 165500: system.cpu.iew: Execute: Executing instructions from IQ.
 165500: system.cpu.iew: Execute: Processing PC (0x401f28=>0x401f2c).(0=>1), [tid:0] [sn:14].
 165500: global: RegFile: Access to int register 54, has data 0x410000
 165500: global: RegFile: Setting int register 55 to 0x418be0
 165500: system.cpu.iew: Current wb cycle: 0, width: 8, numInst: 1
wbActual:1
 165500: system.cpu.iew: Execute: Executing instructions from IQ.
 165500: system.cpu.iew: Execute: Processing PC (0x401f34=>0x401f38).(0=>1), [tid:0] [sn:17].
 165500: global: RegFile: Access to int register 57, has data 0
 165500: global: RegFile: Setting int register 58 to 0x410000
 165500: system.cpu.iew: Current wb cycle: 0, width: 8, numInst: 2
wbActual:2
 165500: system.cpu.iew: Sending instructions to commit, [sn:10] PC (0x401f18=>0x401f1c).(0=>1).
 165500: system.cpu.iq: Waking dependents of completed instruction.
 165500: system.cpu.iq: Waking any dependents on register 51 (IntRegClass).
 165500: system.cpu.iew: Setting Destination Register 51 (IntRegClass)
 165500: system.cpu.iew: Sending instructions to commit, [sn:14] PC (0x401f28=>0x401f2c).(0=>1).
 165500: system.cpu.iq: Waking dependents of completed instruction.
 165500: system.cpu.iq: Waking any dependents on register 55 (IntRegClass).
 165500: system.cpu.iew: Setting Destination Register 55 (IntRegClass)
 165500: system.cpu.iew: Sending instructions to commit, [sn:17] PC (0x401f34=>0x401f38).(0=>1).
 165500: system.cpu.iq: Waking dependents of completed instruction.
 165500: system.cpu.iq: Waking any dependents on register 58 (IntRegClass).
 165500: system.cpu.iq: Waking up a dependent instruction, [sn:18] PC (0x401f38=>0x401f3c).(0=>1).
 165500: global: [sn:18] has 1 ready out of 1 sources. RTI 0)
 165500: system.cpu.iq: Instruction is ready to issue, putting it onto the ready list, PC (0x401f38=>0x401f3c).(0=>1) opclass:1 [sn:18].
 165500: system.cpu.iew: Setting Destination Register 58 (IntRegClass)
 165500: system.cpu.iq: Attempting to schedule ready instructions from the IQ.
 165500: system.cpu.iq: Thread 0: Issuing instruction PC (0x401f38=>0x401f3c).(0=>1) [sn:18]
 165500: system.cpu.iew: Processing [tid:0]
 165500: system.cpu.iew.lsq.thread0: LQ size: 128, #loads occupied: 1
 165500: system.cpu.iew.lsq.thread0: SQ size: 128, #stores occupied: 0
 165500: system.cpu.iew: [tid:0], Dispatch dispatched 0 instructions.
 165500: system.cpu.iew.lsq.thread0: SQ size: 128, #stores occupied: 0
 165500: system.cpu.iew.lsq.thread0: LQ size: 128, #loads occupied: 1
 165500: system.cpu.iew: IQ has 63 free entries (Can schedule: 0).  LQ has 127 free entries. SQ has 128 free entries.
 165500: system.cpu.rob: [tid:0] Checking if head is ready. ROB size=16
. HEAD SN=4 165500: system.cpu.rob: [tid:0] Reading Head Instr.
 165500: system.cpu.rob: [tid:0] Reading Head Instr.
 166000: system.cpu.iew: Issue: Processing [tid:0]
 166000: system.cpu.iew: [tid:0] Not blocked, so attempting to run dispatch.
 166000: system.cpu.iew: Execute: Executing instructions from IQ.
 166000: system.cpu.iew: Execute: Processing PC (0x401f38=>0x401f3c).(0=>1), [tid:0] [sn:18].
 166000: global: RegFile: Access to int register 58, has data 0x410000
 166000: global: RegFile: Setting int register 59 to 0x418ca8
 166000: system.cpu.iew: Current wb cycle: 0, width: 8, numInst: 0
wbActual:0
 166000: system.cpu.iew: Sending instructions to commit, [sn:18] PC (0x401f38=>0x401f3c).(0=>1).
 166000: system.cpu.iq: Waking dependents of completed instruction.
 166000: system.cpu.iq: Waking any dependents on register 59 (IntRegClass).
 166000: system.cpu.iew: Setting Destination Register 59 (IntRegClass)
 166000: system.cpu.iq: Attempting to schedule ready instructions from the IQ.
 166000: system.cpu.iq: Not able to schedule any instructions.
 166000: system.cpu.iew: Processing [tid:0]
 166000: system.cpu.iew.lsq.thread0: LQ size: 128, #loads occupied: 1
 166000: system.cpu.iew.lsq.thread0: SQ size: 128, #stores occupied: 0
 166000: system.cpu.iew: [tid:0], Dispatch dispatched 0 instructions.
 166000: system.cpu.iew.lsq.thread0: SQ size: 128, #stores occupied: 0
 166000: system.cpu.iew.lsq.thread0: LQ size: 128, #loads occupied: 1
 166000: system.cpu.iew: IQ has 63 free entries (Can schedule: 0).  LQ has 127 free entries. SQ has 128 free entries.
 166000: system.cpu.rob: [tid:0] Checking if head is ready. ROB size=16
. HEAD SN=4 166000: system.cpu.rob: [tid:0] Reading Head Instr.
 166000: system.cpu.rob: [tid:0] Reading Head Instr.
 166500: system.cpu.iew: Issue: Processing [tid:0]
 166500: system.cpu.iew: [tid:0] Not blocked, so attempting to run dispatch.
 166500: system.cpu.iq: Attempting to schedule ready instructions from the IQ.
 166500: system.cpu.iq: Not able to schedule any instructions.
 166500: system.cpu.iew: Processing [tid:0]
 166500: system.cpu.iew: [tid:0], Dispatch dispatched 0 instructions.
 166500: system.cpu.iew.lsq.thread0: SQ size: 128, #stores occupied: 0
 166500: system.cpu.iew.lsq.thread0: LQ size: 128, #loads occupied: 1
 166500: system.cpu.iew: IQ has 63 free entries (Can schedule: 0).  LQ has 127 free entries. SQ has 128 free entries.
 166500: system.cpu.rob: [tid:0] Checking if head is ready. ROB size=16
. HEAD SN=4 166500: system.cpu.rob: [tid:0] Reading Head Instr.
 166500: system.cpu.rob: [tid:0] Reading Head Instr.
 167000: system.cpu.iew: Issue: Processing [tid:0]
 167000: system.cpu.iew: [tid:0] Not blocked, so attempting to run dispatch.
 167000: system.cpu.iq: Attempting to schedule ready instructions from the IQ.
 167000: system.cpu.iq: Not able to schedule any instructions.
 167000: system.cpu.iew: Processing [tid:0]
 167000: system.cpu.iew: [tid:0], Dispatch dispatched 0 instructions.
 167000: system.cpu.iew.lsq.thread0: SQ size: 128, #stores occupied: 0
 167000: system.cpu.iew.lsq.thread0: LQ size: 128, #loads occupied: 1
 167000: system.cpu.iew: IQ has 63 free entries (Can schedule: 0).  LQ has 127 free entries. SQ has 128 free entries.
 167000: system.cpu.rob: [tid:0] Checking if head is ready. ROB size=16
. HEAD SN=4 167000: system.cpu.rob: [tid:0] Reading Head Instr.
 167000: system.cpu.rob: [tid:0] Reading Head Instr.
 167500: system.cpu.iew: Issue: Processing [tid:0]
 167500: system.cpu.iew: [tid:0] Not blocked, so attempting to run dispatch.
 167500: system.cpu.iq: Attempting to schedule ready instructions from the IQ.
 167500: system.cpu.iq: Not able to schedule any instructions.
 167500: system.cpu.iew: Processing [tid:0]
 167500: system.cpu.iew: [tid:0], Dispatch dispatched 0 instructions.
 167500: system.cpu.iew.lsq.thread0: SQ size: 128, #stores occupied: 0
 167500: system.cpu.iew.lsq.thread0: LQ size: 128, #loads occupied: 1
 167500: system.cpu.iew: IQ has 63 free entries (Can schedule: 0).  LQ has 127 free entries. SQ has 128 free entries.
 167500: system.cpu.rob: [tid:0] Checking if head is ready. ROB size=16
. HEAD SN=4 167500: system.cpu.rob: [tid:0] Reading Head Instr.
 167500: system.cpu.rob: [tid:0] Reading Head Instr.
 168000: system.cpu.iew: Issue: Processing [tid:0]
 168000: system.cpu.iew: [tid:0] Not blocked, so attempting to run dispatch.
 168000: system.cpu.iq: Attempting to schedule ready instructions from the IQ.
 168000: system.cpu.iq: Not able to schedule any instructions.
 168000: system.cpu.iew: Processing [tid:0]
 168000: system.cpu.iew: [tid:0], Dispatch dispatched 0 instructions.
 168000: system.cpu.iew.lsq.thread0: SQ size: 128, #stores occupied: 0
 168000: system.cpu.iew.lsq.thread0: LQ size: 128, #loads occupied: 1
 168000: system.cpu.iew: IQ has 63 free entries (Can schedule: 0).  LQ has 127 free entries. SQ has 128 free entries.
 168000: system.cpu.rob: [tid:0] Checking if head is ready. ROB size=16
. HEAD SN=4 168000: system.cpu.rob: [tid:0] Reading Head Instr.
 168000: system.cpu.rob: [tid:0] Reading Head Instr.
 168500: system.cpu.iew: Issue: Processing [tid:0]
 168500: system.cpu.iew: [tid:0] Not blocked, so attempting to run dispatch.
 168500: system.cpu.iq: Attempting to schedule ready instructions from the IQ.
 168500: system.cpu.iq: Not able to schedule any instructions.
 168500: system.cpu.iew: Processing [tid:0]
 168500: system.cpu.iew: [tid:0], Dispatch dispatched 0 instructions.
 168500: system.cpu.iew.lsq.thread0: SQ size: 128, #stores occupied: 0
 168500: system.cpu.iew.lsq.thread0: LQ size: 128, #loads occupied: 1
 168500: system.cpu.iew: IQ has 63 free entries (Can schedule: 0).  LQ has 127 free entries. SQ has 128 free entries.
 168500: system.cpu.rob: [tid:0] Checking if head is ready. ROB size=16
. HEAD SN=4 168500: system.cpu.rob: [tid:0] Reading Head Instr.
 168500: system.cpu.rob: [tid:0] Reading Head Instr.
 169000: system.cpu.iew: Issue: Processing [tid:0]
 169000: system.cpu.iew: [tid:0] Not blocked, so attempting to run dispatch.
 169000: system.cpu.iq: Attempting to schedule ready instructions from the IQ.
 169000: system.cpu.iq: Not able to schedule any instructions.
 169000: system.cpu.iew: Processing [tid:0]
 169000: system.cpu.iew: [tid:0], Dispatch dispatched 0 instructions.
 169000: system.cpu.iew.lsq.thread0: SQ size: 128, #stores occupied: 0
 169000: system.cpu.iew.lsq.thread0: LQ size: 128, #loads occupied: 1
 169000: system.cpu.iew: IQ has 63 free entries (Can schedule: 0).  LQ has 127 free entries. SQ has 128 free entries.
 169000: system.cpu.rob: [tid:0] Checking if head is ready. ROB size=16
. HEAD SN=4 169000: system.cpu.rob: [tid:0] Reading Head Instr.
 169000: system.cpu.rob: [tid:0] Reading Head Instr.
 169500: system.cpu.iew: Issue: Processing [tid:0]
 169500: system.cpu.iew: [tid:0] Not blocked, so attempting to run dispatch.
 169500: system.cpu.iq: Attempting to schedule ready instructions from the IQ.
 169500: system.cpu.iq: Not able to schedule any instructions.
 169500: system.cpu.iew: Processing [tid:0]
 169500: system.cpu.iew: [tid:0], Dispatch dispatched 0 instructions.
 169500: system.cpu.iew.lsq.thread0: SQ size: 128, #stores occupied: 0
 169500: system.cpu.iew.lsq.thread0: LQ size: 128, #loads occupied: 1
 169500: system.cpu.iew: IQ has 63 free entries (Can schedule: 0).  LQ has 127 free entries. SQ has 128 free entries.
 169500: system.cpu.rob: [tid:0] Checking if head is ready. ROB size=16
. HEAD SN=4 169500: system.cpu.rob: [tid:0] Reading Head Instr.
 169500: system.cpu.rob: [tid:0] Reading Head Instr.
 170000: system.cpu.iew: Issue: Processing [tid:0]
 170000: system.cpu.iew: [tid:0] Not blocked, so attempting to run dispatch.
 170000: system.cpu.iq: Attempting to schedule ready instructions from the IQ.
 170000: system.cpu.iq: Not able to schedule any instructions.
 170000: system.cpu.iew: Processing [tid:0]
 170000: system.cpu.iew: [tid:0], Dispatch dispatched 0 instructions.
 170000: system.cpu.iew.lsq.thread0: SQ size: 128, #stores occupied: 0
 170000: system.cpu.iew.lsq.thread0: LQ size: 128, #loads occupied: 1
 170000: system.cpu.iew: IQ has 63 free entries (Can schedule: 0).  LQ has 127 free entries. SQ has 128 free entries.
 170000: system.cpu.rob: [tid:0] Checking if head is ready. ROB size=16
. HEAD SN=4 170000: system.cpu.rob: [tid:0] Reading Head Instr.
 170000: system.cpu.rob: [tid:0] Reading Head Instr.
 170500: system.cpu.iew: Issue: Processing [tid:0]
 170500: system.cpu.iew: [tid:0] Not blocked, so attempting to run dispatch.
 170500: system.cpu.iq: Attempting to schedule ready instructions from the IQ.
 170500: system.cpu.iq: Not able to schedule any instructions.
 170500: system.cpu.iew: Processing [tid:0]
 170500: system.cpu.iew: [tid:0], Dispatch dispatched 0 instructions.
 170500: system.cpu.iew.lsq.thread0: SQ size: 128, #stores occupied: 0
 170500: system.cpu.iew.lsq.thread0: LQ size: 128, #loads occupied: 1
 170500: system.cpu.iew: IQ has 63 free entries (Can schedule: 0).  LQ has 127 free entries. SQ has 128 free entries.
 170500: system.cpu.rob: [tid:0] Checking if head is ready. ROB size=16
. HEAD SN=4 170500: system.cpu.rob: [tid:0] Reading Head Instr.
 170500: system.cpu.rob: [tid:0] Reading Head Instr.
 171000: system.cpu.iew: Issue: Processing [tid:0]
 171000: system.cpu.iew: [tid:0] Not blocked, so attempting to run dispatch.
 171000: system.cpu.iq: Attempting to schedule ready instructions from the IQ.
 171000: system.cpu.iq: Not able to schedule any instructions.
 171000: system.cpu.iew: Processing [tid:0]
 171000: system.cpu.iew: [tid:0], Dispatch dispatched 0 instructions.
 171000: system.cpu.iew.lsq.thread0: SQ size: 128, #stores occupied: 0
 171000: system.cpu.iew.lsq.thread0: LQ size: 128, #loads occupied: 1
 171000: system.cpu.iew: IQ has 63 free entries (Can schedule: 0).  LQ has 127 free entries. SQ has 128 free entries.
 171000: system.cpu.rob: [tid:0] Checking if head is ready. ROB size=16
. HEAD SN=4 171000: system.cpu.rob: [tid:0] Reading Head Instr.
 171000: system.cpu.rob: [tid:0] Reading Head Instr.
 249500: system.cpu.iew: Issue: Processing [tid:0]
 249500: system.cpu.iew: [tid:0] Not blocked, so attempting to run dispatch.
 249500: system.cpu.iq: Attempting to schedule ready instructions from the IQ.
 249500: system.cpu.iq: Not able to schedule any instructions.
 249500: system.cpu.iew: Processing [tid:0]
 249500: system.cpu.iew: [tid:0], Dispatch dispatched 0 instructions.
 249500: system.cpu.iew.lsq.thread0: SQ size: 128, #stores occupied: 0
 249500: system.cpu.iew.lsq.thread0: LQ size: 128, #loads occupied: 1
 249500: system.cpu.iew: IQ has 63 free entries (Can schedule: 0).  LQ has 127 free entries. SQ has 128 free entries.
 249500: system.cpu.rob: [tid:0] Checking if head is ready. ROB size=16
. HEAD SN=4 249500: system.cpu.rob: [tid:0] Reading Head Instr.
 249500: system.cpu.rob: [tid:0] Reading Head Instr.
 250000: system.cpu.iew: Issue: Processing [tid:0]
 250000: system.cpu.iew: [tid:0] Not blocked, so attempting to run dispatch.
 250000: system.cpu.iq: Attempting to schedule ready instructions from the IQ.
 250000: system.cpu.iq: Not able to schedule any instructions.
 250000: system.cpu.iew: Processing [tid:0]
 250000: system.cpu.iew: [tid:0], Dispatch dispatched 0 instructions.
 250000: system.cpu.iew.lsq.thread0: SQ size: 128, #stores occupied: 0
 250000: system.cpu.iew.lsq.thread0: LQ size: 128, #loads occupied: 1
 250000: system.cpu.iew: IQ has 63 free entries (Can schedule: 0).  LQ has 127 free entries. SQ has 128 free entries.
 250000: system.cpu.rob: [tid:0] Checking if head is ready. ROB size=16
. HEAD SN=4 250000: system.cpu.rob: [tid:0] Reading Head Instr.
 250000: system.cpu.rob: [tid:0] Reading Head Instr.
 250500: global: [sn:20] has 1 ready out of 1 sources. RTI 0)
 250500: global: [sn:21] has 1 ready out of 2 sources. RTI 0)
 250500: global: [sn:22] has 1 ready out of 2 sources. RTI 0)
 250500: system.cpu.iew: Issue: Processing [tid:0]
 250500: system.cpu.iew: [tid:0] Not blocked, so attempting to run dispatch.
 250500: system.cpu.iq: Attempting to schedule ready instructions from the IQ.
 250500: system.cpu.iq: Not able to schedule any instructions.
 250500: system.cpu.iew: Processing [tid:0]
 250500: system.cpu.iew: [tid:0], Dispatch dispatched 0 instructions.
 250500: system.cpu.iew.lsq.thread0: SQ size: 128, #stores occupied: 0
 250500: system.cpu.iew.lsq.thread0: LQ size: 128, #loads occupied: 1
 250500: system.cpu.iew: IQ has 63 free entries (Can schedule: 0).  LQ has 127 free entries. SQ has 128 free entries.
 250500: system.cpu.rob: [tid:0] Checking if head is ready. ROB size=16
. HEAD SN=4 250500: system.cpu.rob: [tid:0] Reading Head Instr.
 250500: system.cpu.rob: [tid:0] Reading Head Instr.
 251000: global: [sn:28] has 1 ready out of 2 sources. RTI 0)
 251000: global: [sn:29] has 1 ready out of 2 sources. RTI 0)
 251000: global: [sn:30] has 1 ready out of 2 sources. RTI 0)
 251000: global: [sn:30] has 2 ready out of 2 sources. RTI 0)
 251000: global: [sn:32] has 1 ready out of 2 sources. RTI 0)
 251000: global: [sn:33] has 1 ready out of 2 sources. RTI 0)
 251000: global: [sn:34] has 1 ready out of 2 sources. RTI 0)
 251000: global: [sn:34] has 2 ready out of 2 sources. RTI 0)
 251000: global: [sn:35] has 1 ready out of 2 sources. RTI 0)
 251000: global: [sn:35] has 2 ready out of 2 sources. RTI 0)
 251000: system.cpu.iew: Issue: Processing [tid:0]
 251000: system.cpu.iew: [tid:0] Not blocked, so attempting to run dispatch.
 251000: system.cpu.iq: Attempting to schedule ready instructions from the IQ.
 251000: system.cpu.iq: Not able to schedule any instructions.
 251000: system.cpu.iew: Processing [tid:0]
 251000: system.cpu.iew: [tid:0], Dispatch dispatched 0 instructions.
 251000: system.cpu.iew.lsq.thread0: SQ size: 128, #stores occupied: 0
 251000: system.cpu.iew.lsq.thread0: LQ size: 128, #loads occupied: 1
 251000: system.cpu.iew: IQ has 63 free entries (Can schedule: 0).  LQ has 127 free entries. SQ has 128 free entries.
 251000: system.cpu.rob: Adding inst PC (0x418500=>0x418504).(0=>1) to the ROB.
 251000: system.cpu.rob: [tid:0] Now has 17 instructions.
 251000: system.cpu.rob: Adding inst PC (0x418500=>0x418504).(1=>2) to the ROB.
 251000: system.cpu.rob: [tid:0] Now has 18 instructions.
 251000: system.cpu.rob: Adding inst PC (0x418500=>0x418504).(2=>3) to the ROB.
 251000: system.cpu.rob: [tid:0] Now has 19 instructions.
 251000: system.cpu.rob: Adding inst PC (0x418500=>0x418504).(3=>4) to the ROB.
 251000: system.cpu.rob: [tid:0] Now has 20 instructions.
 251000: system.cpu.rob: Adding inst PC (0x418504=>0x418508).(0=>1) to the ROB.
 251000: system.cpu.rob: [tid:0] Now has 21 instructions.
 251000: system.cpu.rob: Adding inst PC (0x418508=>0x41850c).(0=>1) to the ROB.
 251000: system.cpu.rob: [tid:0] Now has 22 instructions.
 251000: system.cpu.rob: Adding inst PC (0x41850c=>0x418510).(0=>1) to the ROB.
 251000: system.cpu.rob: [tid:0] Now has 23 instructions.
 251000: system.cpu.rob: Adding inst PC (0x418510=>0x418514).(0=>1) to the ROB.
 251000: system.cpu.rob: [tid:0] Now has 24 instructions.
 251000: system.cpu.rob: [tid:0] Checking if head is ready. ROB size=24
. HEAD SN=4 251000: system.cpu.rob: [tid:0] Reading Head Instr.
 251000: system.cpu.rob: [tid:0] Reading Head Instr.
 251500: global: [sn:37] has 1 ready out of 2 sources. RTI 0)
 251500: global: [sn:38] has 1 ready out of 2 sources. RTI 0)
 251500: global: [sn:40] has 1 ready out of 2 sources. RTI 0)
 251500: global: [sn:41] has 1 ready out of 2 sources. RTI 0)
 251500: global: [sn:42] has 1 ready out of 2 sources. RTI 0)
 251500: system.cpu.iew: Issue: Processing [tid:0]
 251500: system.cpu.iew: [tid:0] Not blocked, so attempting to run dispatch.
 251500: system.cpu.iew: [tid:0] Issue: Adding PC (0x418500=>0x418504).(0=>1) [sn:20] [tid:0] to IQ.
 251500: system.cpu.iq: Adding instruction [sn:20] PC (0x418500=>0x418504).(0=>1) to the IQ.
 251500: system.cpu.iq: Instruction PC (0x418500=>0x418504).(0=>1) has dest reg 61 (IntRegClass) that is being added as the producer to the dependency chain.
 251500: system.cpu.iq: Instruction is ready to issue, putting it onto the ready list, PC (0x418500=>0x418504).(0=>1) opclass:1 [sn:20].
 251500: system.cpu.iew: [tid:0] Issue: Adding PC (0x418500=>0x418504).(1=>2) [sn:21] [tid:0] to IQ.
 251500: system.cpu.iew: [tid:0] Issue: Memory instruction encountered, adding to LSQ.
 251500: system.cpu.iew.lsq.thread0: Inserting store PC (0x418500=>0x418504).(1=>2), idx:0 [sn:21]
 251500: system.cpu.iq: Adding instruction [sn:21] PC (0x418500=>0x418504).(1=>2) to the IQ.
 251500: system.cpu.iq: Instruction PC (0x418500=>0x418504).(1=>2) has src reg 61 (IntRegClass) that is being added to the dependency chain.
 251500: system.cpu.iew: [tid:0] Issue: Adding PC (0x418500=>0x418504).(2=>3) [sn:22] [tid:0] to IQ.
 251500: system.cpu.iew: [tid:0] Issue: Memory instruction encountered, adding to LSQ.
 251500: system.cpu.iew.lsq.thread0: Inserting store PC (0x418500=>0x418504).(2=>3), idx:1 [sn:22]
 251500: system.cpu.iq: Adding instruction [sn:22] PC (0x418500=>0x418504).(2=>3) to the IQ.
 251500: system.cpu.iq: Instruction PC (0x418500=>0x418504).(2=>3) has src reg 61 (IntRegClass) that is being added to the dependency chain.
 251500: system.cpu.iew: [tid:0] Issue: Adding PC (0x418500=>0x418504).(3=>4) [sn:23] [tid:0] to IQ.
 251500: system.cpu.iq: Adding instruction [sn:23] PC (0x418500=>0x418504).(3=>4) to the IQ.
 251500: system.cpu.iq: Instruction PC (0x418500=>0x418504).(3=>4) has src reg 61 (IntRegClass) that is being added to the dependency chain.
 251500: system.cpu.iq: Instruction PC (0x418500=>0x418504).(3=>4) has dest reg 62 (IntRegClass) that is being added as the producer to the dependency chain.
 251500: system.cpu.iew: [tid:0] Issue: Adding PC (0x418504=>0x418508).(0=>1) [sn:24] [tid:0] to IQ.
 251500: system.cpu.iq: Adding instruction [sn:24] PC (0x418504=>0x418508).(0=>1) to the IQ.
 251500: system.cpu.iq: Instruction PC (0x418504=>0x418508).(0=>1) has dest reg 63 (IntRegClass) that is being added as the producer to the dependency chain.
 251500: system.cpu.iq: Instruction is ready to issue, putting it onto the ready list, PC (0x418504=>0x418508).(0=>1) opclass:1 [sn:24].
 251500: system.cpu.iew: [tid:0] Issue: Adding PC (0x418508=>0x41850c).(0=>1) [sn:25] [tid:0] to IQ.
 251500: system.cpu.iq: Adding instruction [sn:25] PC (0x418508=>0x41850c).(0=>1) to the IQ.
 251500: system.cpu.iq: Instruction PC (0x418508=>0x41850c).(0=>1) has src reg 62 (IntRegClass) that is being added to the dependency chain.
 251500: system.cpu.iq: Instruction PC (0x418508=>0x41850c).(0=>1) has dest reg 64 (IntRegClass) that is being added as the producer to the dependency chain.
 251500: system.cpu.iew: [tid:0] Issue: Adding PC (0x41850c=>0x418510).(0=>1) [sn:26] [tid:0] to IQ.
 251500: system.cpu.iew: [tid:0] Issue: Memory instruction encountered, adding to LSQ.
 251500: system.cpu.iew.lsq.thread0: Inserting load PC (0x41850c=>0x418510).(0=>1), idx:1 [sn:26]
[...]
2328000: system.cpu.iew: IQ has 0 free entries (Can schedule: 0).  LQ has 87 free entries. SQ has 91 free entries.
2328000: system.cpu.rob: [tid:0] Checking if head is ready. ROB size=294
. HEAD SN=722328000: system.cpu.rob: [tid:0] Reading Head Instr.
2328000: system.cpu.rob: [tid:0] Reading Head Instr.
2328500: system.cpu.iew: Issue: Processing [tid:0]
2328500: system.cpu.iew: [tid:0] Stall: IQ  is full.
2328500: system.cpu.iew: [tid:0] Blocking.
2328500: system.cpu.iq: Attempting to schedule ready instructions from the IQ.
2328500: system.cpu.iq: Not able to schedule any instructions.
2328500: system.cpu.iew: Processing [tid:0]
2328500: system.cpu.iew: [tid:0], Dispatch dispatched 0 instructions.
2328500: system.cpu.iew.lsq.thread0: SQ size: 128, #stores occupied: 37
2328500: system.cpu.iew.lsq.thread0: LQ size: 128, #loads occupied: 41
2328500: system.cpu.iew: IQ has 0 free entries (Can schedule: 0).  LQ has 87 free entries. SQ has 91 free entries.
2328500: system.cpu.rob: [tid:0] Checking if head is ready. ROB size=294
. HEAD SN=722328500: system.cpu.rob: [tid:0] Reading Head Instr.
2328500: system.cpu.rob: [tid:0] Reading Head Instr.
2329000: system.cpu.iew: Issue: Processing [tid:0]
2329000: system.cpu.iew: [tid:0] Stall: IQ  is full.
2329000: system.cpu.iew: [tid:0] Blocking.
2329000: system.cpu.iq: Attempting to schedule ready instructions from the IQ.
2329000: system.cpu.iq: Not able to schedule any instructions.
2329000: system.cpu.iew: Processing [tid:0]
2329000: system.cpu.iew: [tid:0], Dispatch dispatched 0 instructions.
2329000: system.cpu.iew.lsq.thread0: SQ size: 128, #stores occupied: 37
2329000: system.cpu.iew.lsq.thread0: LQ size: 128, #loads occupied: 41
2329000: system.cpu.iew: IQ has 0 free entries (Can schedule: 0).  LQ has 87 free entries. SQ has 91 free entries.
2329000: system.cpu.rob: [tid:0] Checking if head is ready. ROB size=294
. HEAD SN=722329000: system.cpu.rob: [tid:0] Reading Head Instr.
2329000: system.cpu.rob: [tid:0] Reading Head Instr.
2329500: system.cpu.iew: Issue: Processing [tid:0]
2329500: system.cpu.iew: [tid:0] Stall: IQ  is full.
2329500: system.cpu.iew: [tid:0] Blocking.
2329500: system.cpu.iq: Attempting to schedule ready instructions from the IQ.
2329500: system.cpu.iq: Not able to schedule any instructions.
2329500: system.cpu.iew: Processing [tid:0]
2329500: system.cpu.iew: [tid:0], Dispatch dispatched 0 instructions.
2329500: system.cpu.iew.lsq.thread0: SQ size: 128, #stores occupied: 37
2329500: system.cpu.iew.lsq.thread0: LQ size: 128, #loads occupied: 41
2329500: system.cpu.iew: IQ has 0 free entries (Can schedule: 0).  LQ has 87 free entries. SQ has 91 free entries.
2329500: system.cpu.rob: [tid:0] Checking if head is ready. ROB size=294
. HEAD SN=722329500: system.cpu.rob: [tid:0] Reading Head Instr.
2329500: system.cpu.rob: [tid:0] Reading Head Instr.
2330000: system.cpu.iew: Issue: Processing [tid:0]
2330000: system.cpu.iew: [tid:0] Stall: IQ  is full.
2330000: system.cpu.iew: [tid:0] Blocking.
2330000: system.cpu.iq: Attempting to schedule ready instructions from the IQ.
2330000: system.cpu.iq: Not able to schedule any instructions.
2330000: system.cpu.iew: Processing [tid:0]
2330000: system.cpu.iew: [tid:0], Dispatch dispatched 0 instructions.
2330000: system.cpu.iew.lsq.thread0: SQ size: 128, #stores occupied: 37
2330000: system.cpu.iew.lsq.thread0: LQ size: 128, #loads occupied: 41
2330000: system.cpu.iew: IQ has 0 free entries (Can schedule: 0).  LQ has 87 free entries. SQ has 91 free entries.
2330000: system.cpu.rob: [tid:0] Checking if head is ready. ROB size=294
. HEAD SN=722330000: system.cpu.rob: [tid:0] Reading Head Instr.
2330000: system.cpu.rob: [tid:0] Reading Head Instr.
2330500: system.cpu.iew: Issue: Processing [tid:0]
2330500: system.cpu.iew: [tid:0] Stall: IQ  is full.
2330500: system.cpu.iew: [tid:0] Blocking.
2330500: system.cpu.iq: Attempting to schedule ready instructions from the IQ.
2330500: system.cpu.iq: Not able to schedule any instructions.
2330500: system.cpu.iew: Processing [tid:0]
2330500: system.cpu.iew: [tid:0], Dispatch dispatched 0 instructions.
2330500: system.cpu.iew.lsq.thread0: SQ size: 128, #stores occupied: 37
2330500: system.cpu.iew.lsq.thread0: LQ size: 128, #loads occupied: 41
2330500: system.cpu.iew: IQ has 0 free entries (Can schedule: 0).  LQ has 87 free entries. SQ has 91 free entries.
2330500: system.cpu.rob: [tid:0] Checking if head is ready. ROB size=294
. HEAD SN=722330500: system.cpu.rob: [tid:0] Reading Head Instr.
2330500: system.cpu.rob: [tid:0] Reading Head Instr.
2331000: system.cpu.iew: Issue: Processing [tid:0]
2331000: system.cpu.iew: [tid:0] Stall: IQ  is full.
2331000: system.cpu.iew: [tid:0] Blocking.
2331000: system.cpu.iq: Attempting to schedule ready instructions from the IQ.
2331000: system.cpu.iq: Not able to schedule any instructions.
2331000: system.cpu.iew: Processing [tid:0]
2331000: system.cpu.iew: [tid:0], Dispatch dispatched 0 instructions.
2331000: system.cpu.iew.lsq.thread0: SQ size: 128, #stores occupied: 37
2331000: system.cpu.iew.lsq.thread0: LQ size: 128, #loads occupied: 41
2331000: system.cpu.iew: IQ has 0 free entries (Can schedule: 0).  LQ has 87 free entries. SQ has 91 free entries.
2331000: system.cpu.rob: [tid:0] Checking if head is ready. ROB size=294
. HEAD SN=722331000: system.cpu.rob: [tid:0] Reading Head Instr.
2331000: system.cpu.rob: [tid:0] Reading Head Instr.
2331500: system.cpu.iew: Issue: Processing [tid:0]
2331500: system.cpu.iew: [tid:0] Stall: IQ  is full.
2331500: system.cpu.iew: [tid:0] Blocking.
2331500: system.cpu.iq: Attempting to schedule ready instructions from the IQ.
2331500: system.cpu.iq: Not able to schedule any instructions.
2331500: system.cpu.iew: Processing [tid:0]
2331500: system.cpu.iew: [tid:0], Dispatch dispatched 0 instructions.
2331500: system.cpu.iew.lsq.thread0: SQ size: 128, #stores occupied: 37
2331500: system.cpu.iew.lsq.thread0: LQ size: 128, #loads occupied: 41
2331500: system.cpu.iew: IQ has 0 free entries (Can schedule: 0).  LQ has 87 free entries. SQ has 91 free entries.
2331500: system.cpu.rob: [tid:0] Checking if head is ready. ROB size=294
. HEAD SN=722331500: system.cpu.rob: [tid:0] Reading Head Instr.
2331500: system.cpu.rob: [tid:0] Reading Head Instr.
2332000: system.cpu.iew: Issue: Processing [tid:0]
2332000: system.cpu.iew: [tid:0] Stall: IQ  is full.
2332000: system.cpu.iew: [tid:0] Blocking.
2332000: system.cpu.iq: Attempting to schedule ready instructions from the IQ.
2332000: system.cpu.iq: Not able to schedule any instructions.
2332000: system.cpu.iew: Processing [tid:0]
2332000: system.cpu.iew: [tid:0], Dispatch dispatched 0 instructions.
2332000: system.cpu.iew.lsq.thread0: SQ size: 128, #stores occupied: 37
2332000: system.cpu.iew.lsq.thread0: LQ size: 128, #loads occupied: 41
2332000: system.cpu.iew: IQ has 0 free entries (Can schedule: 0).  LQ has 87 free entries. SQ has 91 free entries.
2332000: system.cpu.rob: [tid:0] Checking if head is ready. ROB size=294
. HEAD SN=722332000: system.cpu.rob: [tid:0] Reading Head Instr.
2332000: system.cpu.rob: [tid:0] Reading Head Instr.
2332500: system.cpu.iew: Issue: Processing [tid:0]
2332500: system.cpu.iew: [tid:0] Stall: IQ  is full.
2332500: system.cpu.iew: [tid:0] Blocking.
2332500: system.cpu.iq: Attempting to schedule ready instructions from the IQ.
2332500: system.cpu.iq: Not able to schedule any instructions.
2332500: system.cpu.iew: Processing [tid:0]
2332500: system.cpu.iew: [tid:0], Dispatch dispatched 0 instructions.
2332500: system.cpu.iew.lsq.thread0: SQ size: 128, #stores occupied: 37
2332500: system.cpu.iew.lsq.thread0: LQ size: 128, #loads occupied: 41
2332500: system.cpu.iew: IQ has 0 free entries (Can schedule: 0).  LQ has 87 free entries. SQ has 91 free entries.
2332500: system.cpu.rob: [tid:0] Checking if head is ready. ROB size=294
. HEAD SN=722332500: system.cpu.rob: [tid:0] Reading Head Instr.
2332500: system.cpu.rob: [tid:0] Reading Head Instr.
2333000: system.cpu.iew: Issue: Processing [tid:0]
2333000: system.cpu.iew: [tid:0] Stall: IQ  is full.
2333000: system.cpu.iew: [tid:0] Blocking.
2333000: system.cpu.iq: Attempting to schedule ready instructions from the IQ.
2333000: system.cpu.iq: Not able to schedule any instructions.
2333000: system.cpu.iew: Processing [tid:0]
2333000: system.cpu.iew: [tid:0], Dispatch dispatched 0 instructions.
2333000: system.cpu.iew.lsq.thread0: SQ size: 128, #stores occupied: 37
2333000: system.cpu.iew.lsq.thread0: LQ size: 128, #loads occupied: 41
2333000: system.cpu.iew: IQ has 0 free entries (Can schedule: 0).  LQ has 87 free entries. SQ has 91 free entries.
2333000: system.cpu.rob: [tid:0] Checking if head is ready. ROB size=294
. HEAD SN=722333000: system.cpu.rob: [tid:0] Reading Head Instr.
2333000: system.cpu.rob: [tid:0] Reading Head Instr.
2333500: system.cpu.iew: Issue: Processing [tid:0]
2333500: system.cpu.iew: [tid:0] Stall: IQ  is full.
2333500: system.cpu.iew: [tid:0] Blocking.
2333500: system.cpu.iq: Attempting to schedule ready instructions from the IQ.
2333500: system.cpu.iq: Not able to schedule any instructions.
2333500: system.cpu.iew: Processing [tid:0]
2333500: system.cpu.iew: [tid:0], Dispatch dispatched 0 instructions.
2333500: system.cpu.iew.lsq.thread0: SQ size: 128, #stores occupied: 37
2333500: system.cpu.iew.lsq.thread0: LQ size: 128, #loads occupied: 41
2333500: system.cpu.iew: IQ has 0 free entries (Can schedule: 0).  LQ has 87 free entries. SQ has 91 free entries.
2333500: system.cpu.rob: [tid:0] Checking if head is ready. ROB size=294
. HEAD SN=722333500: system.cpu.rob: [tid:0] Reading Head Instr.
2333500: system.cpu.rob: [tid:0] Reading Head Instr.
2334000: system.cpu.iew: Issue: Processing [tid:0]
2334000: system.cpu.iew: [tid:0] Stall: IQ  is full.
2334000: system.cpu.iew: [tid:0] Blocking.
2334000: system.cpu.iq: Attempting to schedule ready instructions from the IQ.
2334000: system.cpu.iq: Not able to schedule any instructions.
2334000: system.cpu.iew: Processing [tid:0]
2334000: system.cpu.iew: [tid:0], Dispatch dispatched 0 instructions.
2334000: system.cpu.iew.lsq.thread0: SQ size: 128, #stores occupied: 37
2334000: system.cpu.iew.lsq.thread0: LQ size: 128, #loads occupied: 41
2334000: system.cpu.iew: IQ has 0 free entries (Can schedule: 0).  LQ has 87 free entries. SQ has 91 free entries.
2334000: system.cpu.rob: [tid:0] Checking if head is ready. ROB size=294
. HEAD SN=722334000: system.cpu.rob: [tid:0] Reading Head Instr.
2334000: system.cpu.rob: [tid:0] Reading Head Instr.
2334500: system.cpu.iew: Issue: Processing [tid:0]
2334500: system.cpu.iew: [tid:0] Stall: IQ  is full.
2334500: system.cpu.iew: [tid:0] Blocking.
2334500: system.cpu.iq: Attempting to schedule ready instructions from the IQ.
2334500: system.cpu.iq: Not able to schedule any instructions.
2334500: system.cpu.iew: Processing [tid:0]
2334500: system.cpu.iew: [tid:0], Dispatch dispatched 0 instructions.
2334500: system.cpu.iew.lsq.thread0: SQ size: 128, #stores occupied: 37
2334500: system.cpu.iew.lsq.thread0: LQ size: 128, #loads occupied: 41
2334500: system.cpu.iew: IQ has 0 free entries (Can schedule: 0).  LQ has 87 free entries. SQ has 91 free entries.
2334500: system.cpu.rob: [tid:0] Checking if head is ready. ROB size=294
. HEAD SN=722334500: system.cpu.rob: [tid:0] Reading Head Instr.
2334500: system.cpu.rob: [tid:0] Reading Head Instr.
2335000: system.cpu.iew: Issue: Processing [tid:0]
2335000: system.cpu.iew: [tid:0] Stall: IQ  is full.
2335000: system.cpu.iew: [tid:0] Blocking.
2335000: system.cpu.iq: Attempting to schedule ready instructions from the IQ.
2335000: system.cpu.iq: Not able to schedule any instructions.
2335000: system.cpu.iew: Processing [tid:0]
2335000: system.cpu.iew: [tid:0], Dispatch dispatched 0 instructions.
2335000: system.cpu.iew.lsq.thread0: SQ size: 128, #stores occupied: 37
2335000: system.cpu.iew.lsq.thread0: LQ size: 128, #loads occupied: 41
2335000: system.cpu.iew: IQ has 0 free entries (Can schedule: 0).  LQ has 87 free entries. SQ has 91 free entries.
2335000: system.cpu.rob: [tid:0] Checking if head is ready. ROB size=294
. HEAD SN=722335000: system.cpu.rob: [tid:0] Reading Head Instr.
2335000: system.cpu.rob: [tid:0] Reading Head Instr.
2335500: system.cpu.iew: Issue: Processing [tid:0]
2335500: system.cpu.iew: [tid:0] Stall: IQ  is full.
2335500: system.cpu.iew: [tid:0] Blocking.
2335500: system.cpu.iq: Attempting to schedule ready instructions from the IQ.
2335500: system.cpu.iq: Not able to schedule any instructions.
2335500: system.cpu.iew: Processing [tid:0]
2335500: system.cpu.iew: [tid:0], Dispatch dispatched 0 instructions.
2335500: system.cpu.iew.lsq.thread0: SQ size: 128, #stores occupied: 37
2335500: system.cpu.iew.lsq.thread0: LQ size: 128, #loads occupied: 41
2335500: system.cpu.iew: IQ has 0 free entries (Can schedule: 0).  LQ has 87 free entries. SQ has 91 free entries.
2335500: system.cpu.rob: [tid:0] Checking if head is ready. ROB size=294
. HEAD SN=722335500: system.cpu.rob: [tid:0] Reading Head Instr.
2335500: system.cpu.rob: [tid:0] Reading Head Instr.
2336000: system.cpu.iew: Issue: Processing [tid:0]
2336000: system.cpu.iew: [tid:0] Stall: IQ  is full.
2336000: system.cpu.iew: [tid:0] Blocking.
2336000: system.cpu.iq: Attempting to schedule ready instructions from the IQ.
2336000: system.cpu.iq: Not able to schedule any instructions.
2336000: system.cpu.iew: Processing [tid:0]
2336000: system.cpu.iew: [tid:0], Dispatch dispatched 0 instructions.
2336000: system.cpu.iew.lsq.thread0: SQ size: 128, #stores occupied: 37
2336000: system.cpu.iew.lsq.thread0: LQ size: 128, #loads occupied: 41
2336000: system.cpu.iew: IQ has 0 free entries (Can schedule: 0).  LQ has 87 free entries. SQ has 91 free entries.
2336000: system.cpu.rob: [tid:0] Checking if head is ready. ROB size=294
. HEAD SN=722336000: system.cpu.rob: [tid:0] Reading Head Instr.
2336000: system.cpu.rob: [tid:0] Reading Head Instr.
2336500: system.cpu.iew: Issue: Processing [tid:0]
2336500: system.cpu.iew: [tid:0] Stall: IQ  is full.
2336500: system.cpu.iew: [tid:0] Blocking.
2336500: system.cpu.iq: Attempting to schedule ready instructions from the IQ.
2336500: system.cpu.iq: Not able to schedule any instructions.
2336500: system.cpu.iew: Processing [tid:0]
2336500: system.cpu.iew: [tid:0], Dispatch dispatched 0 instructions.
2336500: system.cpu.iew.lsq.thread0: SQ size: 128, #stores occupied: 37
2336500: system.cpu.iew.lsq.thread0: LQ size: 128, #loads occupied: 41
2336500: system.cpu.iew: IQ has 0 free entries (Can schedule: 0).  LQ has 87 free entries. SQ has 91 free entries.
2336500: system.cpu.rob: [tid:0] Checking if head is ready. ROB size=294
. HEAD SN=722336500: system.cpu.rob: [tid:0] Reading Head Instr.
2336500: system.cpu.rob: [tid:0] Reading Head Instr.
2337000: system.cpu.iew: Issue: Processing [tid:0]
2337000: system.cpu.iew: [tid:0] Stall: IQ  is full.
2337000: system.cpu.iew: [tid:0] Blocking.
2337000: system.cpu.iq: Attempting to schedule ready instructions from the IQ.
2337000: system.cpu.iq: Not able to schedule any instructions.
2337000: system.cpu.iew: Processing [tid:0]
2337000: system.cpu.iew: [tid:0], Dispatch dispatched 0 instructions.
2337000: system.cpu.iew.lsq.thread0: SQ size: 128, #stores occupied: 37
2337000: system.cpu.iew.lsq.thread0: LQ size: 128, #loads occupied: 41
2337000: system.cpu.iew: IQ has 0 free entries (Can schedule: 0).  LQ has 87 free entries. SQ has 91 free entries.
2337000: system.cpu.rob: [tid:0] Checking if head is ready. ROB size=294
. HEAD SN=722337000: system.cpu.rob: [tid:0] Reading Head Instr.
2337000: system.cpu.rob: [tid:0] Reading Head Instr.
2337500: system.cpu.iew: Issue: Processing [tid:0]
2337500: system.cpu.iew: [tid:0] Stall: IQ  is full.
2337500: system.cpu.iew: [tid:0] Blocking.
2337500: system.cpu.iq: Attempting to schedule ready instructions from the IQ.
2337500: system.cpu.iq: Not able to schedule any instructions.
2337500: system.cpu.iew: Processing [tid:0]
2337500: system.cpu.iew: [tid:0], Dispatch dispatched 0 instructions.
2337500: system.cpu.iew.lsq.thread0: SQ size: 128, #stores occupied: 37
2337500: system.cpu.iew.lsq.thread0: LQ size: 128, #loads occupied: 41
2337500: system.cpu.iew: IQ has 0 free entries (Can schedule: 0).  LQ has 87 free entries. SQ has 91 free entries.
2337500: system.cpu.rob: [tid:0] Checking if head is ready. ROB size=294
. HEAD SN=722337500: system.cpu.rob: [tid:0] Reading Head Instr.
2337500: system.cpu.rob: [tid:0] Reading Head Instr.
2338000: system.cpu.iew: Issue: Processing [tid:0]
2338000: system.cpu.iew: [tid:0] Stall: IQ  is full.
2338000: system.cpu.iew: [tid:0] Blocking.
2338000: system.cpu.iq: Attempting to schedule ready instructions from the IQ.
2338000: system.cpu.iq: Not able to schedule any instructions.
2338000: system.cpu.iew: Processing [tid:0]
2338000: system.cpu.iew: [tid:0], Dispatch dispatched 0 instructions.
2338000: system.cpu.iew.lsq.thread0: SQ size: 128, #stores occupied: 37
2338000: system.cpu.iew.lsq.thread0: LQ size: 128, #loads occupied: 41
2338000: system.cpu.iew: IQ has 0 free entries (Can schedule: 0).  LQ has 87 free entries. SQ has 91 free entries.
2338000: system.cpu.rob: [tid:0] Checking if head is ready. ROB size=294
. HEAD SN=722338000: system.cpu.rob: [tid:0] Reading Head Instr.
2338000: system.cpu.rob: [tid:0] Reading Head Instr.
2338500: system.cpu.iew: Issue: Processing [tid:0]
2338500: system.cpu.iew: [tid:0] Stall: IQ  is full.
2338500: system.cpu.iew: [tid:0] Blocking.
2338500: system.cpu.iq: Attempting to schedule ready instructions from the IQ.
2338500: system.cpu.iq: Not able to schedule any instructions.
2338500: system.cpu.iew: Processing [tid:0]
2338500: system.cpu.iew: [tid:0], Dispatch dispatched 0 instructions.
2338500: system.cpu.iew.lsq.thread0: SQ size: 128, #stores occupied: 37
2338500: system.cpu.iew.lsq.thread0: LQ size: 128, #loads occupied: 41
2338500: system.cpu.iew: IQ has 0 free entries (Can schedule: 0).  LQ has 87 free entries. SQ has 91 free entries.
2338500: system.cpu.rob: [tid:0] Checking if head is ready. ROB size=294
. HEAD SN=722338500: system.cpu.rob: [tid:0] Reading Head Instr.
2338500: system.cpu.rob: [tid:0] Reading Head Instr.
2339000: system.cpu.iew: Issue: Processing [tid:0]
2339000: system.cpu.iew: [tid:0] Stall: IQ  is full.
2339000: system.cpu.iew: [tid:0] Blocking.
2339000: system.cpu.iq: Attempting to schedule ready instructions from the IQ.
2339000: system.cpu.iq: Not able to schedule any instructions.
2339000: system.cpu.iew: Processing [tid:0]
2339000: system.cpu.iew: [tid:0], Dispatch dispatched 0 instructions.
2339000: system.cpu.iew.lsq.thread0: SQ size: 128, #stores occupied: 37
2339000: system.cpu.iew.lsq.thread0: LQ size: 128, #loads occupied: 41
2339000: system.cpu.iew: IQ has 0 free entries (Can schedule: 0).  LQ has 87 free entries. SQ has 91 free entries.
2339000: system.cpu.rob: [tid:0] Checking if head is ready. ROB size=294
. HEAD SN=722339000: system.cpu.rob: [tid:0] Reading Head Instr.
2339000: system.cpu.rob: [tid:0] Reading Head Instr.
2339500: system.cpu.iew: Issue: Processing [tid:0]
2339500: system.cpu.iew: [tid:0] Stall: IQ  is full.
2339500: system.cpu.iew: [tid:0] Blocking.
2339500: system.cpu.iq: Attempting to schedule ready instructions from the IQ.
2339500: system.cpu.iq: Not able to schedule any instructions.
2339500: system.cpu.iew: Processing [tid:0]
2339500: system.cpu.iew: [tid:0], Dispatch dispatched 0 instructions.
2339500: system.cpu.iew.lsq.thread0: SQ size: 128, #stores occupied: 37
2339500: system.cpu.iew.lsq.thread0: LQ size: 128, #loads occupied: 41
2339500: system.cpu.iew: IQ has 0 free entries (Can schedule: 0).  LQ has 87 free entries. SQ has 91 free entries.
2339500: system.cpu.rob: [tid:0] Checking if head is ready. ROB size=294
. HEAD SN=722339500: system.cpu.rob: [tid:0] Reading Head Instr.
2339500: system.cpu.rob: [tid:0] Reading Head Instr.
Exiting @ tick 2339500 because user interrupt received
