Global frequency set at 1000000000000 ticks per second
      0: system.cpu.iq: IQ sharing policy set to Partitioned:64 entries per thread.
      0: system.cpu.iew.lsq.thread0: Creating LSQUnit0 object.
      0: system.cpu.rob: Created ROB
      0: system.cpu.rob: Checking freeLoadVector value. Front: 0, Back: 16383 
      0: system.cpu.rob: Reseting state.
      0: system.cpu.rob: [tid:0] Getting Tail Bank: 0
      0: system.cpu.rob: [tid:1] Getting Tail Bank: 0
      0: system.cpu.rob: [tid:2] Getting Tail Bank: 0
      0: system.cpu.rob: [tid:3] Getting Tail Bank: 0
      0: system.cpu.iew.lsq.thread0: LQ size: 32, #loads occupied: 0
      0: system.cpu.iew.lsq.thread0: SQ size: 32, #stores occupied: 0
      0: system.cpu.iew.lsq.thread0: LQ size: 32, #loads occupied: 0
      0: system.cpu.iew.lsq.thread0: SQ size: 32, #stores occupied: 0
      0: system.cpu.rob: Setting active threads list pointer.
gem5 Simulator System.  https://www.gem5.org
gem5 is copyrighted software; use the --copyright option for details.

gem5 version 22.0.0.2
gem5 compiled Nov 17 2025 21:06:20
gem5 started Nov 17 2025 21:07:47
gem5 executing on ececomp4.ecn.purdue.edu, pid 188357
command line: ./build/ECE565-ARM/gem5.opt --debug-flags=ROB,IQ,LSQUnit configs/spec/spec_se.py --cpu-type=ArmO3CPU --maxinsts=1000000 --l1d_size=64kB --l1i_size=16kB --caches --l2cache -b sjeng

**** REAL SIMULATION ****
      0: system.cpu.iq: Attempting to schedule ready instructions from the IQ.
      0: system.cpu.iq: Not able to schedule any instructions.
      0: system.cpu.iew.lsq.thread0: LQ size: 32, #loads occupied: 0
      0: system.cpu.iew.lsq.thread0: SQ size: 32, #stores occupied: 0
      0: system.cpu.rob: Does not need to squash due to being empty [sn:0]
    500: system.cpu.iq: [tid:0] Starting to squash instructions in the IQ.
    500: system.cpu.iq: [tid:0] Squashing until sequence number 0!
    500: system.cpu.iew.lsq.thread0: Squashing until [sn:0]!(Loads:0 Stores:0)
    500: system.cpu.iq: Attempting to schedule ready instructions from the IQ.
    500: system.cpu.iq: Not able to schedule any instructions.
    500: system.cpu.iew.lsq.thread0: LQ size: 32, #loads occupied: 0
    500: system.cpu.iew.lsq.thread0: SQ size: 32, #stores occupied: 0
   1000: system.cpu.iq: Attempting to schedule ready instructions from the IQ.
   1000: system.cpu.iq: Not able to schedule any instructions.
   1500: system.cpu.iq: Attempting to schedule ready instructions from the IQ.
   1500: system.cpu.iq: Not able to schedule any instructions.
   2000: system.cpu.iq: Attempting to schedule ready instructions from the IQ.
   2000: system.cpu.iq: Not able to schedule any instructions.
   2500: system.cpu.iq: Attempting to schedule ready instructions from the IQ.
   2500: system.cpu.iq: Not able to schedule any instructions.
   3000: system.cpu.iq: Attempting to schedule ready instructions from the IQ.
   3000: system.cpu.iq: Not able to schedule any instructions.
   3500: system.cpu.iq: Attempting to schedule ready instructions from the IQ.
   3500: system.cpu.iq: Not able to schedule any instructions.
   4000: system.cpu.iq: Attempting to schedule ready instructions from the IQ.
   4000: system.cpu.iq: Not able to schedule any instructions.
   4500: system.cpu.iq: Attempting to schedule ready instructions from the IQ.
   4500: system.cpu.iq: Not able to schedule any instructions.
   5000: system.cpu.iq: Attempting to schedule ready instructions from the IQ.
   5000: system.cpu.iq: Not able to schedule any instructions.
   5500: system.cpu.iq: Attempting to schedule ready instructions from the IQ.
   5500: system.cpu.iq: Not able to schedule any instructions.
  89000: system.cpu.iq: Attempting to schedule ready instructions from the IQ.
  89000: system.cpu.iq: Not able to schedule any instructions.
  89500: system.cpu.iq: Attempting to schedule ready instructions from the IQ.
  89500: system.cpu.iq: Not able to schedule any instructions.
  90000: global: [sn:3] has 1 ready out of 2 sources. RTI 0)
  90000: global: [sn:3] has 2 ready out of 2 sources. RTI 0)
  90000: system.cpu.iq: Attempting to schedule ready instructions from the IQ.
  90000: system.cpu.iq: Not able to schedule any instructions.
  90500: system.cpu.iq: Attempting to schedule ready instructions from the IQ.
  90500: system.cpu.iq: Not able to schedule any instructions.
  90500: system.cpu.rob: Adding inst PC (0x401ef4=>0x401ef8).(0=>1) to the ROB.
  90500: system.cpu.rob: [tid:0] Now has 1 instructions.
  90500: system.cpu.rob: Adding inst PC (0x401ef8=>0x401efc).(0=>1) to the ROB.
  90500: system.cpu.rob: [tid:0] Getting Tail Bank: 0
  90500: system.cpu.rob: [tid:0] Now has 2 instructions.
  90500: system.cpu.rob: Adding inst PC (0x401efc=>0x401f00).(0=>1) to the ROB.
  90500: system.cpu.rob: [tid:0] Getting Tail Bank: 1
  90500: system.cpu.rob: [tid:0] Now has 3 instructions.
  90500: system.cpu.rob: [tid:0] Getting Head Bank: 0
  90500: system.cpu.rob: [tid:0] Checking if head is ready. Head bank: 0 size=1
  90500: system.cpu.rob: [tid:0] Reading Head Instr.
  90500: system.cpu.rob: [tid:0] Getting Head Bank: 0
  90500: system.cpu.rob: [tid:0] Reading Head Instr.
  90500: system.cpu.rob: [tid:0] Getting Head Bank: 0
  91000: system.cpu.iq: Adding instruction [sn:1] PC (0x401ef4=>0x401ef8).(0=>1) to the IQ.
  91000: system.cpu.iq: Instruction is ready to issue, putting it onto the ready list, PC (0x401ef4=>0x401ef8).(0=>1) opclass:1 [sn:1].
  91000: system.cpu.iq: Adding instruction [sn:2] PC (0x401ef8=>0x401efc).(0=>1) to the IQ.
  91000: system.cpu.iq: Instruction is ready to issue, putting it onto the ready list, PC (0x401ef8=>0x401efc).(0=>1) opclass:1 [sn:2].
  91000: system.cpu.iq: Adding instruction [sn:3] PC (0x401efc=>0x401f00).(0=>1) to the IQ.
  91000: system.cpu.iq: Instruction is ready to issue, putting it onto the ready list, PC (0x401efc=>0x401f00).(0=>1) opclass:1 [sn:3].
  91000: system.cpu.iq: Attempting to schedule ready instructions from the IQ.
  91000: system.cpu.iq: Thread 0: Issuing instruction PC (0x401ef4=>0x401ef8).(0=>1) [sn:1]
  91000: system.cpu.iq: Thread 0: Issuing instruction PC (0x401ef8=>0x401efc).(0=>1) [sn:2]
  91000: system.cpu.iq: Thread 0: Issuing instruction PC (0x401efc=>0x401f00).(0=>1) [sn:3]
  91000: system.cpu.rob: [tid:0] Getting Head Bank: 0
  91000: system.cpu.rob: [tid:0] Checking if head is ready. Head bank: 0 size=1
  91000: system.cpu.rob: [tid:0] Reading Head Instr.
  91000: system.cpu.rob: [tid:0] Getting Head Bank: 0
  91000: system.cpu.rob: [tid:0] Reading Head Instr.
  91000: system.cpu.rob: [tid:0] Getting Head Bank: 0
  91500: system.cpu.iq: Waking dependents of completed instruction.
  91500: system.cpu.iq: Waking any dependents on register 42 (IntRegClass).
  91500: system.cpu.iq: Waking dependents of completed instruction.
  91500: system.cpu.iq: Waking any dependents on register 43 (IntRegClass).
  91500: system.cpu.iq: Waking dependents of completed instruction.
  91500: system.cpu.iq: Waking any dependents on register 44 (IntRegClass).
  91500: system.cpu.iq: Attempting to schedule ready instructions from the IQ.
  91500: system.cpu.iq: Not able to schedule any instructions.
  91500: system.cpu.iew.lsq.thread0: LQ size: 32, #loads occupied: 0
  91500: system.cpu.iew.lsq.thread0: SQ size: 32, #stores occupied: 0
  91500: system.cpu.rob: [tid:0] Getting Head Bank: 0
  91500: system.cpu.rob: [tid:0] Checking if head is ready. Head bank: 0 size=1
  91500: system.cpu.rob: [tid:0] Reading Head Instr.
  91500: system.cpu.rob: [tid:0] Getting Head Bank: 0
  91500: system.cpu.rob: [tid:0] Reading Head Instr.
  91500: system.cpu.rob: [tid:0] Getting Head Bank: 0
  92000: system.cpu.iq: Attempting to schedule ready instructions from the IQ.
  92000: system.cpu.iq: Not able to schedule any instructions.
  92000: system.cpu.rob: [tid:0] Getting Head Bank: 0
  92000: system.cpu.rob: [tid:0] Checking if head is ready. Head bank: 0 size=1
  92000: system.cpu.rob: [tid:0] Reading Head Instr.
  92000: system.cpu.rob: [tid:0] Getting Head Bank: 0
  92000: system.cpu.rob: [tid:0] Reading Head Instr.
  92000: system.cpu.rob: [tid:0] Getting Head Bank: 0
  92500: system.cpu.iq: Attempting to schedule ready instructions from the IQ.
  92500: system.cpu.iq: Not able to schedule any instructions.
  92500: system.cpu.rob: [tid:0] Getting Head Bank: 0
  92500: system.cpu.rob: [tid:0] Checking if head is ready. Head bank: 0 size=1
  92500: system.cpu.rob: [tid:0] Reading Head Instr.
  92500: system.cpu.rob: [tid:0] Getting Head Bank: 0
  92500: system.cpu.rob: [tid:0] Getting Head Bank: 0
  92500: system.cpu.rob: [tid:0] Retiring head instruction, instruction PC (0x401ef4=>0x401ef8).(0=>1), [sn:1]
  92500: system.cpu.rob: Updating global head ptr.
  92500: system.cpu.rob: [tid:0] Getting Head Bank: 1
  92500: system.cpu.rob: [tid:0] Getting Tail Bank: 2
  92500: system.cpu.rob: [tid:0] Getting Head Bank: 1
  92500: system.cpu.rob: [tid:0] Checking if head is ready. Head bank: 1 size=1
  92500: system.cpu.rob: [tid:0] Reading Head Instr.
  92500: system.cpu.rob: [tid:0] Getting Head Bank: 1
  92500: system.cpu.rob: [tid:0] Getting Head Bank: 1
  92500: system.cpu.rob: [tid:0] Retiring head instruction, instruction PC (0x401ef8=>0x401efc).(0=>1), [sn:2]
  92500: system.cpu.rob: Updating global head ptr.
  92500: system.cpu.rob: [tid:0] Getting Head Bank: 2
  92500: system.cpu.rob: [tid:0] Getting Tail Bank: 2
  92500: system.cpu.rob: [tid:0] Getting Head Bank: 2
  92500: system.cpu.rob: [tid:0] Checking if head is ready. Head bank: 2 size=1
  92500: system.cpu.rob: [tid:0] Reading Head Instr.
  92500: system.cpu.rob: [tid:0] Getting Head Bank: 2
  92500: system.cpu.rob: [tid:0] Getting Head Bank: 2
  92500: system.cpu.rob: [tid:0] Retiring head instruction, instruction PC (0x401efc=>0x401f00).(0=>1), [sn:3]
  92500: system.cpu.rob: Updating global head ptr.
  92500: system.cpu.rob: [tid:0] Getting Head Bank: 0
  92500: system.cpu.rob: [tid:0] Getting Tail Bank: 0
  93000: system.cpu.iq: Attempting to schedule ready instructions from the IQ.
  93000: system.cpu.iq: Not able to schedule any instructions.
  93000: system.cpu.iq: [tid:0] Committing instructions older than [sn:3]
  93500: system.cpu.iq: Attempting to schedule ready instructions from the IQ.
  93500: system.cpu.iq: Not able to schedule any instructions.
  93500: system.cpu.iew.lsq.thread0: LQ size: 32, #loads occupied: 0
  93500: system.cpu.iew.lsq.thread0: SQ size: 32, #stores occupied: 0
  94000: system.cpu.iq: Attempting to schedule ready instructions from the IQ.
  94000: system.cpu.iq: Not able to schedule any instructions.
  94500: system.cpu.iq: Attempting to schedule ready instructions from the IQ.
  94500: system.cpu.iq: Not able to schedule any instructions.
  95000: system.cpu.iq: Attempting to schedule ready instructions from the IQ.
  95000: system.cpu.iq: Not able to schedule any instructions.
  95500: system.cpu.iq: Attempting to schedule ready instructions from the IQ.
  95500: system.cpu.iq: Not able to schedule any instructions.
  96000: system.cpu.iq: Attempting to schedule ready instructions from the IQ.
  96000: system.cpu.iq: Not able to schedule any instructions.
  96500: system.cpu.iq: Attempting to schedule ready instructions from the IQ.
  96500: system.cpu.iq: Not able to schedule any instructions.
  97000: system.cpu.iq: Attempting to schedule ready instructions from the IQ.
  97000: system.cpu.iq: Not able to schedule any instructions.
  97500: system.cpu.iq: Attempting to schedule ready instructions from the IQ.
  97500: system.cpu.iq: Not able to schedule any instructions.
  98000: system.cpu.iq: Attempting to schedule ready instructions from the IQ.
  98000: system.cpu.iq: Not able to schedule any instructions.
  98500: system.cpu.iq: Attempting to schedule ready instructions from the IQ.
  98500: system.cpu.iq: Not able to schedule any instructions.
 161500: system.cpu.iq: Attempting to schedule ready instructions from the IQ.
 161500: system.cpu.iq: Not able to schedule any instructions.
 162000: system.cpu.iq: Attempting to schedule ready instructions from the IQ.
 162000: system.cpu.iq: Not able to schedule any instructions.
 162500: global: [sn:4] has 1 ready out of 1 sources. RTI 0)
 162500: global: [sn:5] has 1 ready out of 1 sources. RTI 0)
 162500: global: [sn:6] has 1 ready out of 1 sources. RTI 0)
 162500: system.cpu.iq: Attempting to schedule ready instructions from the IQ.
 162500: system.cpu.iq: Not able to schedule any instructions.
 163000: system.cpu.iq: Attempting to schedule ready instructions from the IQ.
 163000: system.cpu.iq: Not able to schedule any instructions.
 163000: system.cpu.rob: Adding inst PC (0x401f00=>0x401f04).(0=>1) to the ROB.
 163000: system.cpu.rob: [tid:0] Now has 1 instructions.
 163000: system.cpu.rob: Adding inst PC (0x401f04=>0x401f08).(0=>1) to the ROB.
 163000: system.cpu.rob: [tid:0] Getting Tail Bank: 0
 163000: system.cpu.rob: [tid:0] Now has 2 instructions.
 163000: system.cpu.rob: Adding inst PC (0x401f08=>0x401f0c).(0=>1) to the ROB.
 163000: system.cpu.rob: [tid:0] Getting Tail Bank: 1
 163000: system.cpu.rob: [tid:0] Now has 3 instructions.
 163000: system.cpu.rob: Adding inst PC (0x401f0c=>0x401f10).(0=>1) to the ROB.
 163000: system.cpu.rob: [tid:0] Getting Tail Bank: 2
 163000: system.cpu.rob: [tid:0] Now has 4 instructions.
 163000: system.cpu.rob: Adding inst PC (0x401f10=>0x401f14).(0=>1) to the ROB.
 163000: system.cpu.rob: [tid:0] Getting Tail Bank: 3
 163000: system.cpu.rob: [tid:0] Now has 5 instructions.
 163000: system.cpu.rob: Adding inst PC (0x401f14=>0x401f18).(0=>1) to the ROB.
 163000: system.cpu.rob: [tid:0] Getting Tail Bank: 4
 163000: system.cpu.rob: [tid:0] Now has 6 instructions.
 163000: system.cpu.rob: Adding inst PC (0x401f18=>0x401f1c).(0=>1) to the ROB.
 163000: system.cpu.rob: [tid:0] Getting Tail Bank: 5
 163000: system.cpu.rob: [tid:0] Now has 7 instructions.
 163000: system.cpu.rob: Adding inst PC (0x401f1c=>0x401f20).(0=>1) to the ROB.
 163000: system.cpu.rob: [tid:0] Getting Tail Bank: 6
 163000: system.cpu.rob: [tid:0] Now has 8 instructions.
 163000: system.cpu.rob: [tid:0] Getting Head Bank: 0
 163000: system.cpu.rob: [tid:0] Checking if head is ready. Head bank: 0 size=1
 163000: system.cpu.rob: [tid:0] Reading Head Instr.
 163000: system.cpu.rob: [tid:0] Getting Head Bank: 0
 163000: system.cpu.rob: [tid:0] Reading Head Instr.
 163000: system.cpu.rob: [tid:0] Getting Head Bank: 0
 163500: system.cpu.iew.lsq.thread0: Inserting load PC (0x401f00=>0x401f04).(0=>1), idx:0 [sn:4]
 163500: system.cpu.iq: Adding instruction [sn:4] PC (0x401f00=>0x401f04).(0=>1) to the IQ.
 163500: system.cpu.iq: Instruction is ready to issue, putting it onto the ready list, PC (0x401f00=>0x401f04).(0=>1) opclass:47 [sn:4].
 163500: system.cpu.iq: Adding instruction [sn:5] PC (0x401f04=>0x401f08).(0=>1) to the IQ.
 163500: system.cpu.iq: Instruction is ready to issue, putting it onto the ready list, PC (0x401f04=>0x401f08).(0=>1) opclass:1 [sn:5].
 163500: system.cpu.iq: Adding instruction [sn:6] PC (0x401f08=>0x401f0c).(0=>1) to the IQ.
 163500: system.cpu.iq: Instruction is ready to issue, putting it onto the ready list, PC (0x401f08=>0x401f0c).(0=>1) opclass:1 [sn:6].
 163500: system.cpu.iq: Adding instruction [sn:7] PC (0x401f0c=>0x401f10).(0=>1) to the IQ.
 163500: system.cpu.iq: Instruction is ready to issue, putting it onto the ready list, PC (0x401f0c=>0x401f10).(0=>1) opclass:1 [sn:7].
 163500: system.cpu.iq: Adding instruction [sn:8] PC (0x401f10=>0x401f14).(0=>1) to the IQ.
 163500: system.cpu.iq: Instruction PC (0x401f10=>0x401f14).(0=>1) has src reg 48 (IntRegClass) that is being added to the dependency chain.
 163500: system.cpu.iq: Adding instruction [sn:9] PC (0x401f14=>0x401f18).(0=>1) to the IQ.
 163500: system.cpu.iq: Instruction PC (0x401f14=>0x401f18).(0=>1) has src reg 49 (IntRegClass) that is being added to the dependency chain.
 163500: system.cpu.iq: Adding instruction [sn:10] PC (0x401f18=>0x401f1c).(0=>1) to the IQ.
 163500: system.cpu.iq: Instruction PC (0x401f18=>0x401f1c).(0=>1) has src reg 50 (IntRegClass) that is being added to the dependency chain.
 163500: system.cpu.iq: Adding instruction [sn:11] PC (0x401f1c=>0x401f20).(0=>1) to the IQ.
 163500: system.cpu.iq: Instruction is ready to issue, putting it onto the ready list, PC (0x401f1c=>0x401f20).(0=>1) opclass:1 [sn:11].
 163500: system.cpu.iq: Attempting to schedule ready instructions from the IQ.
 163500: system.cpu.iq: Thread 0: Issuing instruction PC (0x401f00=>0x401f04).(0=>1) [sn:4]
 163500: system.cpu.iq: Thread 0: Issuing instruction PC (0x401f04=>0x401f08).(0=>1) [sn:5]
 163500: system.cpu.iq: Thread 0: Issuing instruction PC (0x401f08=>0x401f0c).(0=>1) [sn:6]
 163500: system.cpu.iq: Thread 0: Issuing instruction PC (0x401f0c=>0x401f10).(0=>1) [sn:7]
 163500: system.cpu.iq: Thread 0: Issuing instruction PC (0x401f1c=>0x401f20).(0=>1) [sn:11]
 163500: system.cpu.rob: Adding inst PC (0x401f20=>0x401f24).(0=>1) to the ROB.
 163500: system.cpu.rob: [tid:0] Getting Tail Bank: 7
 163500: system.cpu.rob: [tid:0] Now has 9 instructions.
 163500: system.cpu.rob: Adding inst PC (0x401f24=>0x401f28).(0=>1) to the ROB.
 163500: system.cpu.rob: [tid:0] Getting Tail Bank: 8
 163500: system.cpu.rob: [tid:0] Now has 10 instructions.
 163500: system.cpu.rob: Adding inst PC (0x401f28=>0x401f2c).(0=>1) to the ROB.
 163500: system.cpu.rob: [tid:0] Getting Tail Bank: 9
 163500: system.cpu.rob: [tid:0] Now has 11 instructions.
 163500: system.cpu.rob: Adding inst PC (0x401f2c=>0x401f30).(0=>1) to the ROB.
 163500: system.cpu.rob: [tid:0] Getting Tail Bank: 10
 163500: system.cpu.rob: [tid:0] Now has 12 instructions.
 163500: system.cpu.rob: Adding inst PC (0x401f30=>0x401f34).(0=>1) to the ROB.
 163500: system.cpu.rob: [tid:0] Getting Tail Bank: 11
 163500: system.cpu.rob: [tid:0] Now has 13 instructions.
 163500: system.cpu.rob: Adding inst PC (0x401f34=>0x401f38).(0=>1) to the ROB.
 163500: system.cpu.rob: [tid:0] Getting Tail Bank: 12
 163500: system.cpu.rob: [tid:0] Now has 14 instructions.
 163500: system.cpu.rob: Adding inst PC (0x401f38=>0x401f3c).(0=>1) to the ROB.
 163500: system.cpu.rob: [tid:0] Getting Tail Bank: 13
 163500: system.cpu.rob: [tid:0] Now has 15 instructions.
 163500: system.cpu.rob: Adding inst PC (0x401f3c=>0x401f40).(0=>1) to the ROB.
 163500: system.cpu.rob: [tid:0] Getting Tail Bank: 14
 163500: system.cpu.rob: [tid:0] Now has 16 instructions.
 163500: system.cpu.rob: [tid:0] Getting Head Bank: 0
 163500: system.cpu.rob: [tid:0] Checking if head is ready. Head bank: 0 size=1
 163500: system.cpu.rob: [tid:0] Reading Head Instr.
 163500: system.cpu.rob: [tid:0] Getting Head Bank: 0
 163500: system.cpu.rob: [tid:0] Reading Head Instr.
 163500: system.cpu.rob: [tid:0] Getting Head Bank: 0
 164000: system.cpu.iq: Adding instruction [sn:12] PC (0x401f20=>0x401f24).(0=>1) to the IQ.
 164000: system.cpu.iq: Instruction PC (0x401f20=>0x401f24).(0=>1) has src reg 52 (IntRegClass) that is being added to the dependency chain.
 164000: system.cpu.iq: Adding instruction [sn:13] PC (0x401f24=>0x401f28).(0=>1) to the IQ.
 164000: system.cpu.iq: Instruction PC (0x401f24=>0x401f28).(0=>1) has src reg 53 (IntRegClass) that is being added to the dependency chain.
 164000: system.cpu.iq: Adding instruction [sn:14] PC (0x401f28=>0x401f2c).(0=>1) to the IQ.
 164000: system.cpu.iq: Instruction PC (0x401f28=>0x401f2c).(0=>1) has src reg 54 (IntRegClass) that is being added to the dependency chain.
 164000: system.cpu.iq: Adding instruction [sn:15] PC (0x401f2c=>0x401f30).(0=>1) to the IQ.
 164000: system.cpu.iq: Instruction is ready to issue, putting it onto the ready list, PC (0x401f2c=>0x401f30).(0=>1) opclass:1 [sn:15].
 164000: system.cpu.iq: Adding instruction [sn:16] PC (0x401f30=>0x401f34).(0=>1) to the IQ.
 164000: system.cpu.iq: Instruction PC (0x401f30=>0x401f34).(0=>1) has src reg 56 (IntRegClass) that is being added to the dependency chain.
 164000: system.cpu.iq: Adding instruction [sn:17] PC (0x401f34=>0x401f38).(0=>1) to the IQ.
 164000: system.cpu.iq: Instruction PC (0x401f34=>0x401f38).(0=>1) has src reg 57 (IntRegClass) that is being added to the dependency chain.
 164000: system.cpu.iq: Adding instruction [sn:18] PC (0x401f38=>0x401f3c).(0=>1) to the IQ.
 164000: system.cpu.iq: Instruction PC (0x401f38=>0x401f3c).(0=>1) has src reg 58 (IntRegClass) that is being added to the dependency chain.
 164000: system.cpu.iq: Adding instruction [sn:19] PC (0x401f3c=>0x401f40).(0=>1) to the IQ.
 164000: system.cpu.iq: Instruction is ready to issue, putting it onto the ready list, PC (0x401f3c=>0x401f40).(0=>1) opclass:1 [sn:19].
 164000: system.cpu.iew.lsq.thread0: Executing load PC (0x401f00=>0x401f04).(0=>1), [sn:4]
 164000: system.cpu.iew.lsq.thread0: Read called, load idx: 0, store idx: 1, storeHead: 0 addr: 0x320da0
 164000: system.cpu.iew.lsq.thread0: Doing memory access for inst [sn:4] PC (0x401f00=>0x401f04).(0=>1)
 164000: system.cpu.iew.lsq.thread0: Memory request (pkt: ReadReq [320da0:320da7]) from inst [sn:4] was sent (cache is blocked: 0, cache_got_blocked: 0)
 164000: system.cpu.iew.lsq.thread0: Package sent to cache
 164000: system.cpu.iew.lsq.thread0: Package sent successfully
 164000: system.cpu.rob: [tid:0] Assigned Load Vector Pointer: 16383
 164000: system.cpu.iew.lsq.thread0: Got load vector index from WIB
 164000: system.cpu.iew.lsq.thread0: Setting Destination Register wait bit 45 (IntRegClass) with WIB Index (16383)
 164000: system.cpu.iq: Waking dependents of completed instruction.
 164000: system.cpu.iq: Waking any dependents on register 46 (IntRegClass).
 164000: system.cpu.iq: Waking dependents of completed instruction.
 164000: system.cpu.iq: Waking any dependents on register 47 (IntRegClass).
 164000: system.cpu.iq: Waking dependents of completed instruction.
 164000: system.cpu.iq: Waking any dependents on register 48 (IntRegClass).
 164000: system.cpu.iq: Waking up a dependent instruction, [sn:8] PC (0x401f10=>0x401f14).(0=>1).
 164000: global: [sn:8] has 1 ready out of 1 sources. RTI 0)
 164000: system.cpu.iq: Instruction is ready to issue, putting it onto the ready list, PC (0x401f10=>0x401f14).(0=>1) opclass:1 [sn:8].
 164000: system.cpu.iq: Waking dependents of completed instruction.
 164000: system.cpu.iq: Waking any dependents on register 52 (IntRegClass).
 164000: system.cpu.iq: Waking up a dependent instruction, [sn:12] PC (0x401f20=>0x401f24).(0=>1).
 164000: global: [sn:12] has 1 ready out of 1 sources. RTI 0)
 164000: system.cpu.iq: Instruction is ready to issue, putting it onto the ready list, PC (0x401f20=>0x401f24).(0=>1) opclass:1 [sn:12].
 164000: system.cpu.iq: Attempting to schedule ready instructions from the IQ.
 164000: system.cpu.iq: Thread 0: Issuing instruction PC (0x401f10=>0x401f14).(0=>1) [sn:8]
 164000: system.cpu.iq: Thread 0: Issuing instruction PC (0x401f20=>0x401f24).(0=>1) [sn:12]
 164000: system.cpu.iq: Thread 0: Issuing instruction PC (0x401f2c=>0x401f30).(0=>1) [sn:15]
 164000: system.cpu.iq: Thread 0: Issuing instruction PC (0x401f3c=>0x401f40).(0=>1) [sn:19]
 164000: system.cpu.iew.lsq.thread0: LQ size: 32, #loads occupied: 1
 164000: system.cpu.iew.lsq.thread0: SQ size: 32, #stores occupied: 0
 164000: system.cpu.rob: [tid:0] Getting Head Bank: 0
 164000: system.cpu.rob: [tid:0] Checking if head is ready. Head bank: 0 size=1
 164000: system.cpu.rob: [tid:0] Reading Head Instr.
 164000: system.cpu.rob: [tid:0] Getting Head Bank: 0
 164000: system.cpu.rob: [tid:0] Reading Head Instr.
 164000: system.cpu.rob: [tid:0] Getting Head Bank: 0
 164500: system.cpu.iq: Waking dependents of completed instruction.
 164500: system.cpu.iq: Waking any dependents on register 49 (IntRegClass).
 164500: system.cpu.iq: Waking up a dependent instruction, [sn:9] PC (0x401f14=>0x401f18).(0=>1).
 164500: global: [sn:9] has 1 ready out of 1 sources. RTI 0)
 164500: system.cpu.iq: Instruction is ready to issue, putting it onto the ready list, PC (0x401f14=>0x401f18).(0=>1) opclass:1 [sn:9].
 164500: system.cpu.iq: Waking dependents of completed instruction.
 164500: system.cpu.iq: Waking any dependents on register 53 (IntRegClass).
 164500: system.cpu.iq: Waking up a dependent instruction, [sn:13] PC (0x401f24=>0x401f28).(0=>1).
 164500: global: [sn:13] has 1 ready out of 1 sources. RTI 0)
 164500: system.cpu.iq: Instruction is ready to issue, putting it onto the ready list, PC (0x401f24=>0x401f28).(0=>1) opclass:1 [sn:13].
 164500: system.cpu.iq: Waking dependents of completed instruction.
 164500: system.cpu.iq: Waking any dependents on register 56 (IntRegClass).
 164500: system.cpu.iq: Waking up a dependent instruction, [sn:16] PC (0x401f30=>0x401f34).(0=>1).
 164500: global: [sn:16] has 1 ready out of 1 sources. RTI 0)
 164500: system.cpu.iq: Instruction is ready to issue, putting it onto the ready list, PC (0x401f30=>0x401f34).(0=>1) opclass:1 [sn:16].
 164500: system.cpu.iq: Waking dependents of completed instruction.
 164500: system.cpu.iq: Waking any dependents on register 60 (IntRegClass).
 164500: system.cpu.iq: Attempting to schedule ready instructions from the IQ.
 164500: system.cpu.iq: Thread 0: Issuing instruction PC (0x401f14=>0x401f18).(0=>1) [sn:9]
 164500: system.cpu.iq: Thread 0: Issuing instruction PC (0x401f24=>0x401f28).(0=>1) [sn:13]
 164500: system.cpu.iq: Thread 0: Issuing instruction PC (0x401f30=>0x401f34).(0=>1) [sn:16]
 164500: system.cpu.iew.lsq.thread0: LQ size: 32, #loads occupied: 1
 164500: system.cpu.iew.lsq.thread0: SQ size: 32, #stores occupied: 0
 164500: system.cpu.rob: [tid:0] Getting Head Bank: 0
 164500: system.cpu.rob: [tid:0] Checking if head is ready. Head bank: 0 size=1
 164500: system.cpu.rob: [tid:0] Reading Head Instr.
 164500: system.cpu.rob: [tid:0] Getting Head Bank: 0
 164500: system.cpu.rob: [tid:0] Reading Head Instr.
 164500: system.cpu.rob: [tid:0] Getting Head Bank: 0
 165000: system.cpu.iq: Waking dependents of completed instruction.
 165000: system.cpu.iq: Waking any dependents on register 50 (IntRegClass).
 165000: system.cpu.iq: Waking up a dependent instruction, [sn:10] PC (0x401f18=>0x401f1c).(0=>1).
 165000: global: [sn:10] has 1 ready out of 1 sources. RTI 0)
 165000: system.cpu.iq: Instruction is ready to issue, putting it onto the ready list, PC (0x401f18=>0x401f1c).(0=>1) opclass:1 [sn:10].
 165000: system.cpu.iq: Waking dependents of completed instruction.
 165000: system.cpu.iq: Waking any dependents on register 54 (IntRegClass).
 165000: system.cpu.iq: Waking up a dependent instruction, [sn:14] PC (0x401f28=>0x401f2c).(0=>1).
 165000: global: [sn:14] has 1 ready out of 1 sources. RTI 0)
 165000: system.cpu.iq: Instruction is ready to issue, putting it onto the ready list, PC (0x401f28=>0x401f2c).(0=>1) opclass:1 [sn:14].
 165000: system.cpu.iq: Waking dependents of completed instruction.
 165000: system.cpu.iq: Waking any dependents on register 57 (IntRegClass).
 165000: system.cpu.iq: Waking up a dependent instruction, [sn:17] PC (0x401f34=>0x401f38).(0=>1).
 165000: global: [sn:17] has 1 ready out of 1 sources. RTI 0)
 165000: system.cpu.iq: Instruction is ready to issue, putting it onto the ready list, PC (0x401f34=>0x401f38).(0=>1) opclass:1 [sn:17].
 165000: system.cpu.iq: Attempting to schedule ready instructions from the IQ.
 165000: system.cpu.iq: Thread 0: Issuing instruction PC (0x401f18=>0x401f1c).(0=>1) [sn:10]
 165000: system.cpu.iq: Thread 0: Issuing instruction PC (0x401f28=>0x401f2c).(0=>1) [sn:14]
 165000: system.cpu.iq: Thread 0: Issuing instruction PC (0x401f34=>0x401f38).(0=>1) [sn:17]
 165000: system.cpu.iew.lsq.thread0: LQ size: 32, #loads occupied: 1
 165000: system.cpu.iew.lsq.thread0: SQ size: 32, #stores occupied: 0
 165000: system.cpu.rob: [tid:0] Getting Head Bank: 0
 165000: system.cpu.rob: [tid:0] Checking if head is ready. Head bank: 0 size=1
 165000: system.cpu.rob: [tid:0] Reading Head Instr.
 165000: system.cpu.rob: [tid:0] Getting Head Bank: 0
 165000: system.cpu.rob: [tid:0] Reading Head Instr.
 165000: system.cpu.rob: [tid:0] Getting Head Bank: 0
 165500: system.cpu.iq: Waking dependents of completed instruction.
 165500: system.cpu.iq: Waking any dependents on register 51 (IntRegClass).
 165500: system.cpu.iq: Waking dependents of completed instruction.
 165500: system.cpu.iq: Waking any dependents on register 55 (IntRegClass).
 165500: system.cpu.iq: Waking dependents of completed instruction.
 165500: system.cpu.iq: Waking any dependents on register 58 (IntRegClass).
 165500: system.cpu.iq: Waking up a dependent instruction, [sn:18] PC (0x401f38=>0x401f3c).(0=>1).
 165500: global: [sn:18] has 1 ready out of 1 sources. RTI 0)
 165500: system.cpu.iq: Instruction is ready to issue, putting it onto the ready list, PC (0x401f38=>0x401f3c).(0=>1) opclass:1 [sn:18].
 165500: system.cpu.iq: Attempting to schedule ready instructions from the IQ.
 165500: system.cpu.iq: Thread 0: Issuing instruction PC (0x401f38=>0x401f3c).(0=>1) [sn:18]
 165500: system.cpu.iew.lsq.thread0: LQ size: 32, #loads occupied: 1
 165500: system.cpu.iew.lsq.thread0: SQ size: 32, #stores occupied: 0
 165500: system.cpu.rob: [tid:0] Getting Head Bank: 0
 165500: system.cpu.rob: [tid:0] Checking if head is ready. Head bank: 0 size=1
 165500: system.cpu.rob: [tid:0] Reading Head Instr.
 165500: system.cpu.rob: [tid:0] Getting Head Bank: 0
 165500: system.cpu.rob: [tid:0] Reading Head Instr.
 165500: system.cpu.rob: [tid:0] Getting Head Bank: 0
 166000: system.cpu.iq: Waking dependents of completed instruction.
 166000: system.cpu.iq: Waking any dependents on register 59 (IntRegClass).
 166000: system.cpu.iq: Attempting to schedule ready instructions from the IQ.
 166000: system.cpu.iq: Not able to schedule any instructions.
 166000: system.cpu.iew.lsq.thread0: LQ size: 32, #loads occupied: 1
 166000: system.cpu.iew.lsq.thread0: SQ size: 32, #stores occupied: 0
 166000: system.cpu.rob: [tid:0] Getting Head Bank: 0
 166000: system.cpu.rob: [tid:0] Checking if head is ready. Head bank: 0 size=1
 166000: system.cpu.rob: [tid:0] Reading Head Instr.
 166000: system.cpu.rob: [tid:0] Getting Head Bank: 0
 166000: system.cpu.rob: [tid:0] Reading Head Instr.
 166000: system.cpu.rob: [tid:0] Getting Head Bank: 0
 166500: system.cpu.iq: Attempting to schedule ready instructions from the IQ.
 166500: system.cpu.iq: Not able to schedule any instructions.
 166500: system.cpu.rob: [tid:0] Getting Head Bank: 0
 166500: system.cpu.rob: [tid:0] Checking if head is ready. Head bank: 0 size=1
 166500: system.cpu.rob: [tid:0] Reading Head Instr.
 166500: system.cpu.rob: [tid:0] Getting Head Bank: 0
 166500: system.cpu.rob: [tid:0] Reading Head Instr.
 166500: system.cpu.rob: [tid:0] Getting Head Bank: 0
 167000: system.cpu.iq: Attempting to schedule ready instructions from the IQ.
 167000: system.cpu.iq: Not able to schedule any instructions.
 167000: system.cpu.rob: [tid:0] Getting Head Bank: 0
 167000: system.cpu.rob: [tid:0] Checking if head is ready. Head bank: 0 size=1
 167000: system.cpu.rob: [tid:0] Reading Head Instr.
 167000: system.cpu.rob: [tid:0] Getting Head Bank: 0
 167000: system.cpu.rob: [tid:0] Reading Head Instr.
 167000: system.cpu.rob: [tid:0] Getting Head Bank: 0
 167500: system.cpu.iq: Attempting to schedule ready instructions from the IQ.
 167500: system.cpu.iq: Not able to schedule any instructions.
 167500: system.cpu.rob: [tid:0] Getting Head Bank: 0
 167500: system.cpu.rob: [tid:0] Checking if head is ready. Head bank: 0 size=1
 167500: system.cpu.rob: [tid:0] Reading Head Instr.
 167500: system.cpu.rob: [tid:0] Getting Head Bank: 0
 167500: system.cpu.rob: [tid:0] Reading Head Instr.
 167500: system.cpu.rob: [tid:0] Getting Head Bank: 0
 168000: system.cpu.iq: Attempting to schedule ready instructions from the IQ.
 168000: system.cpu.iq: Not able to schedule any instructions.
 168000: system.cpu.rob: [tid:0] Getting Head Bank: 0
 168000: system.cpu.rob: [tid:0] Checking if head is ready. Head bank: 0 size=1
 168000: system.cpu.rob: [tid:0] Reading Head Instr.
 168000: system.cpu.rob: [tid:0] Getting Head Bank: 0
 168000: system.cpu.rob: [tid:0] Reading Head Instr.
 168000: system.cpu.rob: [tid:0] Getting Head Bank: 0
 168500: system.cpu.iq: Attempting to schedule ready instructions from the IQ.
 168500: system.cpu.iq: Not able to schedule any instructions.
 168500: system.cpu.rob: [tid:0] Getting Head Bank: 0
 168500: system.cpu.rob: [tid:0] Checking if head is ready. Head bank: 0 size=1
 168500: system.cpu.rob: [tid:0] Reading Head Instr.
 168500: system.cpu.rob: [tid:0] Getting Head Bank: 0
 168500: system.cpu.rob: [tid:0] Reading Head Instr.
 168500: system.cpu.rob: [tid:0] Getting Head Bank: 0
 169000: system.cpu.iq: Attempting to schedule ready instructions from the IQ.
 169000: system.cpu.iq: Not able to schedule any instructions.
 169000: system.cpu.rob: [tid:0] Getting Head Bank: 0
 169000: system.cpu.rob: [tid:0] Checking if head is ready. Head bank: 0 size=1
 169000: system.cpu.rob: [tid:0] Reading Head Instr.
 169000: system.cpu.rob: [tid:0] Getting Head Bank: 0
 169000: system.cpu.rob: [tid:0] Reading Head Instr.
 169000: system.cpu.rob: [tid:0] Getting Head Bank: 0
 169500: system.cpu.iq: Attempting to schedule ready instructions from the IQ.
 169500: system.cpu.iq: Not able to schedule any instructions.
 169500: system.cpu.rob: [tid:0] Getting Head Bank: 0
 169500: system.cpu.rob: [tid:0] Checking if head is ready. Head bank: 0 size=1
 169500: system.cpu.rob: [tid:0] Reading Head Instr.
 169500: system.cpu.rob: [tid:0] Getting Head Bank: 0
 169500: system.cpu.rob: [tid:0] Reading Head Instr.
 169500: system.cpu.rob: [tid:0] Getting Head Bank: 0
 170000: system.cpu.iq: Attempting to schedule ready instructions from the IQ.
 170000: system.cpu.iq: Not able to schedule any instructions.
 170000: system.cpu.rob: [tid:0] Getting Head Bank: 0
 170000: system.cpu.rob: [tid:0] Checking if head is ready. Head bank: 0 size=1
 170000: system.cpu.rob: [tid:0] Reading Head Instr.
 170000: system.cpu.rob: [tid:0] Getting Head Bank: 0
 170000: system.cpu.rob: [tid:0] Reading Head Instr.
 170000: system.cpu.rob: [tid:0] Getting Head Bank: 0
 170500: system.cpu.iq: Attempting to schedule ready instructions from the IQ.
 170500: system.cpu.iq: Not able to schedule any instructions.
 170500: system.cpu.rob: [tid:0] Getting Head Bank: 0
 170500: system.cpu.rob: [tid:0] Checking if head is ready. Head bank: 0 size=1
 170500: system.cpu.rob: [tid:0] Reading Head Instr.
 170500: system.cpu.rob: [tid:0] Getting Head Bank: 0
 170500: system.cpu.rob: [tid:0] Reading Head Instr.
 170500: system.cpu.rob: [tid:0] Getting Head Bank: 0
 171000: system.cpu.iq: Attempting to schedule ready instructions from the IQ.
 171000: system.cpu.iq: Not able to schedule any instructions.
 171000: system.cpu.rob: [tid:0] Getting Head Bank: 0
 171000: system.cpu.rob: [tid:0] Checking if head is ready. Head bank: 0 size=1
 171000: system.cpu.rob: [tid:0] Reading Head Instr.
 171000: system.cpu.rob: [tid:0] Getting Head Bank: 0
 171000: system.cpu.rob: [tid:0] Reading Head Instr.
 171000: system.cpu.rob: [tid:0] Getting Head Bank: 0
 249500: system.cpu.iq: Attempting to schedule ready instructions from the IQ.
 249500: system.cpu.iq: Not able to schedule any instructions.
 249500: system.cpu.rob: [tid:0] Getting Head Bank: 0
 249500: system.cpu.rob: [tid:0] Checking if head is ready. Head bank: 0 size=1
 249500: system.cpu.rob: [tid:0] Reading Head Instr.
 249500: system.cpu.rob: [tid:0] Getting Head Bank: 0
 249500: system.cpu.rob: [tid:0] Reading Head Instr.
 249500: system.cpu.rob: [tid:0] Getting Head Bank: 0
 250000: system.cpu.iq: Attempting to schedule ready instructions from the IQ.
 250000: system.cpu.iq: Not able to schedule any instructions.
 250000: system.cpu.rob: [tid:0] Getting Head Bank: 0
 250000: system.cpu.rob: [tid:0] Checking if head is ready. Head bank: 0 size=1
 250000: system.cpu.rob: [tid:0] Reading Head Instr.
 250000: system.cpu.rob: [tid:0] Getting Head Bank: 0
 250000: system.cpu.rob: [tid:0] Reading Head Instr.
 250000: system.cpu.rob: [tid:0] Getting Head Bank: 0
 250500: global: [sn:20] has 1 ready out of 1 sources. RTI 0)
 250500: global: [sn:21] has 1 ready out of 2 sources. RTI 0)
 250500: global: [sn:22] has 1 ready out of 2 sources. RTI 0)
 250500: system.cpu.iq: Attempting to schedule ready instructions from the IQ.
 250500: system.cpu.iq: Not able to schedule any instructions.
 250500: system.cpu.rob: [tid:0] Getting Head Bank: 0
 250500: system.cpu.rob: [tid:0] Checking if head is ready. Head bank: 0 size=1
 250500: system.cpu.rob: [tid:0] Reading Head Instr.
 250500: system.cpu.rob: [tid:0] Getting Head Bank: 0
 250500: system.cpu.rob: [tid:0] Reading Head Instr.
 250500: system.cpu.rob: [tid:0] Getting Head Bank: 0
 251000: global: [sn:28] has 1 ready out of 2 sources. RTI 0)
 251000: global: [sn:29] has 1 ready out of 2 sources. RTI 0)
 251000: global: [sn:30] has 1 ready out of 2 sources. RTI 0)
 251000: global: [sn:30] has 2 ready out of 2 sources. RTI 0)
 251000: global: [sn:32] has 1 ready out of 2 sources. RTI 0)
 251000: global: [sn:33] has 1 ready out of 2 sources. RTI 0)
 251000: global: [sn:34] has 1 ready out of 2 sources. RTI 0)
 251000: global: [sn:34] has 2 ready out of 2 sources. RTI 0)
 251000: global: [sn:35] has 1 ready out of 2 sources. RTI 0)
 251000: global: [sn:35] has 2 ready out of 2 sources. RTI 0)
 251000: system.cpu.iq: Attempting to schedule ready instructions from the IQ.
 251000: system.cpu.iq: Not able to schedule any instructions.
 251000: system.cpu.rob: Adding inst PC (0x418500=>0x418504).(0=>1) to the ROB.
 251000: system.cpu.rob: [tid:0] Getting Tail Bank: 15
 251000: system.cpu.rob: [tid:0] Now has 17 instructions.
 251000: system.cpu.rob: Adding inst PC (0x418500=>0x418504).(1=>2) to the ROB.
 251000: system.cpu.rob: [tid:0] Getting Tail Bank: 0
 251000: system.cpu.rob: [tid:0] Now has 18 instructions.
 251000: system.cpu.rob: Adding inst PC (0x418500=>0x418504).(2=>3) to the ROB.
 251000: system.cpu.rob: [tid:0] Getting Tail Bank: 1
 251000: system.cpu.rob: [tid:0] Now has 19 instructions.
 251000: system.cpu.rob: Adding inst PC (0x418500=>0x418504).(3=>4) to the ROB.
 251000: system.cpu.rob: [tid:0] Getting Tail Bank: 2
 251000: system.cpu.rob: [tid:0] Now has 20 instructions.
 251000: system.cpu.rob: Adding inst PC (0x418504=>0x418508).(0=>1) to the ROB.
 251000: system.cpu.rob: [tid:0] Getting Tail Bank: 3
 251000: system.cpu.rob: [tid:0] Now has 21 instructions.
 251000: system.cpu.rob: Adding inst PC (0x418508=>0x41850c).(0=>1) to the ROB.
 251000: system.cpu.rob: [tid:0] Getting Tail Bank: 4
 251000: system.cpu.rob: [tid:0] Now has 22 instructions.
 251000: system.cpu.rob: Adding inst PC (0x41850c=>0x418510).(0=>1) to the ROB.
 251000: system.cpu.rob: [tid:0] Getting Tail Bank: 5
 251000: system.cpu.rob: [tid:0] Now has 23 instructions.
 251000: system.cpu.rob: Adding inst PC (0x418510=>0x418514).(0=>1) to the ROB.
 251000: system.cpu.rob: [tid:0] Getting Tail Bank: 6
 251000: system.cpu.rob: [tid:0] Now has 24 instructions.
 251000: system.cpu.rob: [tid:0] Getting Head Bank: 0
 251000: system.cpu.rob: [tid:0] Checking if head is ready. Head bank: 0 size=2
 251000: system.cpu.rob: [tid:0] Reading Head Instr.
 251000: system.cpu.rob: [tid:0] Getting Head Bank: 0
 251000: system.cpu.rob: [tid:0] Reading Head Instr.
 251000: system.cpu.rob: [tid:0] Getting Head Bank: 0
 251500: global: [sn:37] has 1 ready out of 2 sources. RTI 0)
 251500: global: [sn:38] has 1 ready out of 2 sources. RTI 0)
 251500: global: [sn:40] has 1 ready out of 2 sources. RTI 0)
 251500: global: [sn:41] has 1 ready out of 2 sources. RTI 0)
 251500: global: [sn:42] has 1 ready out of 2 sources. RTI 0)
 251500: system.cpu.iq: Adding instruction [sn:20] PC (0x418500=>0x418504).(0=>1) to the IQ.
 251500: system.cpu.iq: Instruction is ready to issue, putting it onto the ready list, PC (0x418500=>0x418504).(0=>1) opclass:1 [sn:20].
 251500: system.cpu.iew.lsq.thread0: Inserting store PC (0x418500=>0x418504).(1=>2), idx:0 [sn:21]
 251500: system.cpu.iq: Adding instruction [sn:21] PC (0x418500=>0x418504).(1=>2) to the IQ.
 251500: system.cpu.iq: Instruction PC (0x418500=>0x418504).(1=>2) has src reg 61 (IntRegClass) that is being added to the dependency chain.
 251500: system.cpu.iew.lsq.thread0: Inserting store PC (0x418500=>0x418504).(2=>3), idx:1 [sn:22]
 251500: system.cpu.iq: Adding instruction [sn:22] PC (0x418500=>0x418504).(2=>3) to the IQ.
 251500: system.cpu.iq: Instruction PC (0x418500=>0x418504).(2=>3) has src reg 61 (IntRegClass) that is being added to the dependency chain.
 251500: system.cpu.iq: Adding instruction [sn:23] PC (0x418500=>0x418504).(3=>4) to the IQ.
 251500: system.cpu.iq: Instruction PC (0x418500=>0x418504).(3=>4) has src reg 61 (IntRegClass) that is being added to the dependency chain.
 251500: system.cpu.iq: Adding instruction [sn:24] PC (0x418504=>0x418508).(0=>1) to the IQ.
 251500: system.cpu.iq: Instruction is ready to issue, putting it onto the ready list, PC (0x418504=>0x418508).(0=>1) opclass:1 [sn:24].
 251500: system.cpu.iq: Adding instruction [sn:25] PC (0x418508=>0x41850c).(0=>1) to the IQ.
 251500: system.cpu.iq: Instruction PC (0x418508=>0x41850c).(0=>1) has src reg 62 (IntRegClass) that is being added to the dependency chain.
 251500: system.cpu.iew.lsq.thread0: Inserting load PC (0x41850c=>0x418510).(0=>1), idx:1 [sn:26]
 251500: system.cpu.iq: Adding instruction [sn:26] PC (0x41850c=>0x418510).(0=>1) to the IQ.
 251500: system.cpu.iq: Instruction PC (0x41850c=>0x418510).(0=>1) has src reg 63 (IntRegClass) that is being added to the dependency chain.
 251500: system.cpu.iq: Adding instruction [sn:27] PC (0x418510=>0x418514).(0=>1) to the IQ.
 251500: system.cpu.iq: Instruction PC (0x418510=>0x418514).(0=>1) has src reg 62 (IntRegClass) that is being added to the dependency chain.
 251500: system.cpu.iq: Attempting to schedule ready instructions from the IQ.
 251500: system.cpu.iq: Thread 0: Issuing instruction PC (0x418500=>0x418504).(0=>1) [sn:20]
 251500: system.cpu.iq: Thread 0: Issuing instruction PC (0x418504=>0x418508).(0=>1) [sn:24]
 251500: system.cpu.rob: Adding inst PC (0x418510=>0x418514).(1=>2) to the ROB.
 251500: system.cpu.rob: [tid:0] Getting Tail Bank: 7
 251500: system.cpu.rob: [tid:0] Now has 25 instructions.
 251500: system.cpu.rob: Adding inst PC (0x418510=>0x418514).(2=>3) to the ROB.
 251500: system.cpu.rob: [tid:0] Getting Tail Bank: 8
 251500: system.cpu.rob: [tid:0] Now has 26 instructions.
 251500: system.cpu.rob: Adding inst PC (0x418514=>0x418518).(0=>1) to the ROB.
 251500: system.cpu.rob: [tid:0] Getting Tail Bank: 9
 251500: system.cpu.rob: [tid:0] Now has 27 instructions.
 251500: system.cpu.rob: Adding inst PC (0x418518=>0x41851c).(0=>1) to the ROB.
 251500: system.cpu.rob: [tid:0] Getting Tail Bank: 10
 251500: system.cpu.rob: [tid:0] Now has 28 instructions.
 251500: system.cpu.rob: Adding inst PC (0x418518=>0x41851c).(1=>2) to the ROB.
 251500: system.cpu.rob: [tid:0] Getting Tail Bank: 11
 251500: system.cpu.rob: [tid:0] Now has 29 instructions.
 251500: system.cpu.rob: Adding inst PC (0x418518=>0x41851c).(2=>3) to the ROB.
 251500: system.cpu.rob: [tid:0] Getting Tail Bank: 12
 251500: system.cpu.rob: [tid:0] Now has 30 instructions.
 251500: system.cpu.rob: Adding inst PC (0x41851c=>0x418520).(0=>1) to the ROB.
 251500: system.cpu.rob: [tid:0] Getting Tail Bank: 13
 251500: system.cpu.rob: [tid:0] Now has 31 instructions.
 251500: system.cpu.rob: Adding inst PC (0x418520=>0x418524).(0=>1) to the ROB.
 251500: system.cpu.rob: [tid:0] Getting Tail Bank: 14
 251500: system.cpu.rob: [tid:0] Now has 32 instructions.
 251500: system.cpu.rob: [tid:0] Getting Head Bank: 0
 251500: system.cpu.rob: [tid:0] Checking if head is ready. Head bank: 0 size=2
 251500: system.cpu.rob: [tid:0] Reading Head Instr.
 251500: system.cpu.rob: [tid:0] Getting Head Bank: 0
 251500: system.cpu.rob: [tid:0] Reading Head Instr.
 251500: system.cpu.rob: [tid:0] Getting Head Bank: 0
 252000: global: [sn:46] has 1 ready out of 2 sources. RTI 0)
 252000: global: [sn:47] has 1 ready out of 2 sources. RTI 0)
 252000: system.cpu.iew.lsq.thread0: Inserting store PC (0x418510=>0x418514).(1=>2), idx:2 [sn:28]
 252000: system.cpu.iq: Adding instruction [sn:28] PC (0x418510=>0x418514).(1=>2) to the IQ.
 252000: system.cpu.iq: Instruction PC (0x418510=>0x418514).(1=>2) has src reg 66 (IntRegClass) that is being added to the dependency chain.
 252000: system.cpu.iew.lsq.thread0: Inserting store PC (0x418510=>0x418514).(2=>3), idx:3 [sn:29]
 252000: system.cpu.iq: Adding instruction [sn:29] PC (0x418510=>0x418514).(2=>3) to the IQ.
 252000: system.cpu.iq: Instruction PC (0x418510=>0x418514).(2=>3) has src reg 66 (IntRegClass) that is being added to the dependency chain.
 252000: system.cpu.iq: Adding instruction [sn:30] PC (0x418514=>0x418518).(0=>1) to the IQ.
 252000: system.cpu.iq: Instruction is ready to issue, putting it onto the ready list, PC (0x418514=>0x418518).(0=>1) opclass:1 [sn:30].
 252000: system.cpu.iq: Adding instruction [sn:31] PC (0x418518=>0x41851c).(0=>1) to the IQ.
 252000: system.cpu.iq: Instruction PC (0x418518=>0x41851c).(0=>1) has src reg 62 (IntRegClass) that is being added to the dependency chain.
 252000: system.cpu.iew.lsq.thread0: Inserting store PC (0x418518=>0x41851c).(1=>2), idx:4 [sn:32]
 252000: system.cpu.iq: Adding instruction [sn:32] PC (0x418518=>0x41851c).(1=>2) to the IQ.
 252000: system.cpu.iq: Instruction PC (0x418518=>0x41851c).(1=>2) has src reg 68 (IntRegClass) that is being added to the dependency chain.
 252000: system.cpu.iew.lsq.thread0: Inserting store PC (0x418518=>0x41851c).(2=>3), idx:5 [sn:33]
 252000: system.cpu.iq: Adding instruction [sn:33] PC (0x418518=>0x41851c).(2=>3) to the IQ.
 252000: system.cpu.iq: Instruction PC (0x418518=>0x41851c).(2=>3) has src reg 68 (IntRegClass) that is being added to the dependency chain.
 252000: system.cpu.iq: Adding instruction [sn:34] PC (0x41851c=>0x418520).(0=>1) to the IQ.
 252000: system.cpu.iq: Instruction is ready to issue, putting it onto the ready list, PC (0x41851c=>0x418520).(0=>1) opclass:1 [sn:34].
 252000: system.cpu.iq: Adding instruction [sn:35] PC (0x418520=>0x418524).(0=>1) to the IQ.
 252000: system.cpu.iq: Instruction is ready to issue, putting it onto the ready list, PC (0x418520=>0x418524).(0=>1) opclass:1 [sn:35].
 252000: system.cpu.iq: Waking dependents of completed instruction.
 252000: system.cpu.iq: Waking any dependents on register 61 (IntRegClass).
 252000: system.cpu.iq: Waking up a dependent instruction, [sn:23] PC (0x418500=>0x418504).(3=>4).
 252000: global: [sn:23] has 1 ready out of 1 sources. RTI 0)
 252000: system.cpu.iq: Instruction is ready to issue, putting it onto the ready list, PC (0x418500=>0x418504).(3=>4) opclass:1 [sn:23].
 252000: system.cpu.iq: Waking up a dependent instruction, [sn:22] PC (0x418500=>0x418504).(2=>3).
 252000: global: [sn:22] has 2 ready out of 2 sources. RTI 0)
 252000: system.cpu.iq: Checking if memory instruction can issue.
 252000: system.cpu.iq: Instruction is ready to issue, putting it onto the ready list, PC (0x418500=>0x418504).(2=>3) opclass:48 [sn:22].
 252000: system.cpu.iq: Waking up a dependent instruction, [sn:21] PC (0x418500=>0x418504).(1=>2).
 252000: global: [sn:21] has 2 ready out of 2 sources. RTI 0)
 252000: system.cpu.iq: Checking if memory instruction can issue.
 252000: system.cpu.iq: Instruction is ready to issue, putting it onto the ready list, PC (0x418500=>0x418504).(1=>2) opclass:48 [sn:21].
 252000: system.cpu.iq: Waking dependents of completed instruction.
 252000: system.cpu.iq: Waking any dependents on register 63 (IntRegClass).
 252000: system.cpu.iq: Waking up a dependent instruction, [sn:26] PC (0x41850c=>0x418510).(0=>1).
 252000: global: [sn:26] has 1 ready out of 1 sources. RTI 0)
 252000: system.cpu.iq: Checking if memory instruction can issue.
 252000: system.cpu.iq: Instruction is ready to issue, putting it onto the ready list, PC (0x41850c=>0x418510).(0=>1) opclass:47 [sn:26].
 252000: system.cpu.iq: Attempting to schedule ready instructions from the IQ.
 252000: system.cpu.iq: Thread 0: Issuing instruction PC (0x418500=>0x418504).(1=>2) [sn:21]
 252000: system.cpu.iq: Thread 0: Issuing instruction PC (0x418500=>0x418504).(2=>3) [sn:22]
 252000: system.cpu.iq: Thread 0: Issuing instruction PC (0x418500=>0x418504).(3=>4) [sn:23]
 252000: system.cpu.iq: Thread 0: Issuing instruction PC (0x41850c=>0x418510).(0=>1) [sn:26]
 252000: system.cpu.iq: Thread 0: Issuing instruction PC (0x418514=>0x418518).(0=>1) [sn:30]
 252000: system.cpu.iq: Thread 0: Issuing instruction PC (0x41851c=>0x418520).(0=>1) [sn:34]
 252000: system.cpu.iq: Thread 0: Issuing instruction PC (0x418520=>0x418524).(0=>1) [sn:35]
 252000: system.cpu.iew.lsq.thread0: LQ size: 32, #loads occupied: 2
 252000: system.cpu.iew.lsq.thread0: SQ size: 32, #stores occupied: 6
 252000: system.cpu.rob: Adding inst PC (0x418524=>0x418528).(0=>1) to the ROB.
 252000: system.cpu.rob: [tid:0] Getting Tail Bank: 15
 252000: system.cpu.rob: [tid:0] Now has 33 instructions.
 252000: system.cpu.rob: Adding inst PC (0x418524=>0x418528).(1=>2) to the ROB.
 252000: system.cpu.rob: [tid:0] Getting Tail Bank: 0
 252000: system.cpu.rob: [tid:0] Now has 34 instructions.
 252000: system.cpu.rob: Adding inst PC (0x418524=>0x418528).(2=>3) to the ROB.
 252000: system.cpu.rob: [tid:0] Getting Tail Bank: 1
 252000: system.cpu.rob: [tid:0] Now has 35 instructions.
 252000: system.cpu.rob: Adding inst PC (0x418528=>0x41852c).(0=>1) to the ROB.
 252000: system.cpu.rob: [tid:0] Getting Tail Bank: 2
 252000: system.cpu.rob: [tid:0] Now has 36 instructions.
 252000: system.cpu.rob: Adding inst PC (0x418528=>0x41852c).(1=>2) to the ROB.
 252000: system.cpu.rob: [tid:0] Getting Tail Bank: 3
 252000: system.cpu.rob: [tid:0] Now has 37 instructions.
 252000: system.cpu.rob: Adding inst PC (0x418528=>0x41852c).(2=>3) to the ROB.
 252000: system.cpu.rob: [tid:0] Getting Tail Bank: 4
 252000: system.cpu.rob: [tid:0] Now has 38 instructions.
 252000: system.cpu.rob: Adding inst PC (0x41852c=>0x418530).(0=>1) to the ROB.
 252000: system.cpu.rob: [tid:0] Getting Tail Bank: 5
 252000: system.cpu.rob: [tid:0] Now has 39 instructions.
 252000: system.cpu.rob: Adding inst PC (0x418530=>0x418534).(0=>1) to the ROB.
 252000: system.cpu.rob: [tid:0] Getting Tail Bank: 6
 252000: system.cpu.rob: [tid:0] Now has 40 instructions.
 252000: system.cpu.rob: [tid:0] Getting Head Bank: 0
 252000: system.cpu.rob: [tid:0] Checking if head is ready. Head bank: 0 size=3
 252000: system.cpu.rob: [tid:0] Reading Head Instr.
 252000: system.cpu.rob: [tid:0] Getting Head Bank: 0
 252000: system.cpu.rob: [tid:0] Reading Head Instr.
 252000: system.cpu.rob: [tid:0] Getting Head Bank: 0
 252500: system.cpu.iq: Adding instruction [sn:36] PC (0x418524=>0x418528).(0=>1) to the IQ.
 252500: system.cpu.iq: Instruction PC (0x418524=>0x418528).(0=>1) has src reg 62 (IntRegClass) that is being added to the dependency chain.
 252500: system.cpu.iew.lsq.thread0: Inserting store PC (0x418524=>0x418528).(1=>2), idx:6 [sn:37]
 252500: system.cpu.iq: Adding instruction [sn:37] PC (0x418524=>0x418528).(1=>2) to the IQ.
 252500: system.cpu.iq: Instruction PC (0x418524=>0x418528).(1=>2) has src reg 71 (IntRegClass) that is being added to the dependency chain.
 252500: system.cpu.iew.lsq.thread0: Inserting store PC (0x418524=>0x418528).(2=>3), idx:7 [sn:38]
 252500: system.cpu.iq: Adding instruction [sn:38] PC (0x418524=>0x418528).(2=>3) to the IQ.
 252500: system.cpu.iq: Instruction PC (0x418524=>0x418528).(2=>3) has src reg 71 (IntRegClass) that is being added to the dependency chain.
 252500: system.cpu.iq: Adding instruction [sn:39] PC (0x418528=>0x41852c).(0=>1) to the IQ.
 252500: system.cpu.iq: Instruction PC (0x418528=>0x41852c).(0=>1) has src reg 62 (IntRegClass) that is being added to the dependency chain.
 252500: system.cpu.iew.lsq.thread0: Inserting store PC (0x418528=>0x41852c).(1=>2), idx:8 [sn:40]
 252500: system.cpu.iq: Adding instruction [sn:40] PC (0x418528=>0x41852c).(1=>2) to the IQ.
 252500: system.cpu.iq: Instruction PC (0x418528=>0x41852c).(1=>2) has src reg 72 (IntRegClass) that is being added to the dependency chain.
 252500: system.cpu.iew.lsq.thread0: Inserting store PC (0x418528=>0x41852c).(2=>3), idx:9 [sn:41]
 252500: system.cpu.iq: Adding instruction [sn:41] PC (0x418528=>0x41852c).(2=>3) to the IQ.
 252500: system.cpu.iq: Instruction PC (0x418528=>0x41852c).(2=>3) has src reg 72 (IntRegClass) that is being added to the dependency chain.
 252500: system.cpu.iew.lsq.thread0: Inserting store PC (0x41852c=>0x418530).(0=>1), idx:10 [sn:42]
 252500: system.cpu.iq: Adding instruction [sn:42] PC (0x41852c=>0x418530).(0=>1) to the IQ.
 252500: system.cpu.iq: Instruction PC (0x41852c=>0x418530).(0=>1) has src reg 62 (IntRegClass) that is being added to the dependency chain.
 252500: system.cpu.iew.lsq.thread0: Inserting store PC (0x418530=>0x418534).(0=>1), idx:11 [sn:43]
 252500: system.cpu.iq: Adding instruction [sn:43] PC (0x418530=>0x418534).(0=>1) to the IQ.
 252500: system.cpu.iq: Instruction PC (0x418530=>0x418534).(0=>1) has src reg 62 (IntRegClass) that is being added to the dependency chain.
 252500: system.cpu.iq: Instruction PC (0x418530=>0x418534).(0=>1) has src reg 45 (IntRegClass) that is being added to the dependency chain.
 252500: system.cpu.iew.lsq.thread0: Executing store PC (0x418500=>0x418504).(1=>2) [sn:21]
 252500: system.cpu.iew.lsq.thread0: Doing write to store idx 0, addr 0x320c20 | storeHead:0 [sn:21]
 252500: system.cpu.iew.lsq.thread0: Executing store PC (0x418500=>0x418504).(2=>3) [sn:22]
 252500: system.cpu.iew.lsq.thread0: Doing write to store idx 1, addr 0x320c28 | storeHead:0 [sn:22]
 252500: system.cpu.iew.lsq.thread0: Executing load PC (0x41850c=>0x418510).(0=>1), [sn:26]
 252500: system.cpu.iew.lsq.thread0: Read called, load idx: 1, store idx: 3, storeHead: 0 addr: 0x7d3a0
 252500: system.cpu.iew.lsq.thread0: Doing memory access for inst [sn:26] PC (0x41850c=>0x418510).(0=>1)
 252500: system.cpu.iew.lsq.thread0: Memory request (pkt: ReadReq [7d3a0:7d3a7]) from inst [sn:26] was sent (cache is blocked: 0, cache_got_blocked: 0)
 252500: system.cpu.iew.lsq.thread0: Package sent to cache
 252500: system.cpu.iew.lsq.thread0: Package sent successfully
 252500: system.cpu.rob: [tid:0] Assigned Load Vector Pointer: 16382
 252500: system.cpu.iew.lsq.thread0: Got load vector index from WIB
 252500: system.cpu.iew.lsq.thread0: Setting Destination Register wait bit 65 (IntRegClass) with WIB Index (16382)
 252500: system.cpu.iq: Waking dependents of completed instruction.
 252500: system.cpu.iq: Completing mem instruction PC: (0x418500=>0x418504).(1=>2) [sn:21]
 252500: system.cpu.iq: Waking dependents of completed instruction.
 252500: system.cpu.iq: Completing mem instruction PC: (0x418500=>0x418504).(2=>3) [sn:22]
 252500: system.cpu.iq: Waking dependents of completed instruction.
 252500: system.cpu.iq: Waking any dependents on register 62 (IntRegClass).
 252500: system.cpu.iq: Waking up a dependent instruction, [sn:43] PC (0x418530=>0x418534).(0=>1).
 252500: global: [sn:43] has 1 ready out of 2 sources. RTI 0)
 252500: system.cpu.iq: Waking up a dependent instruction, [sn:42] PC (0x41852c=>0x418530).(0=>1).
 252500: global: [sn:42] has 2 ready out of 2 sources. RTI 0)
 252500: system.cpu.iq: Checking if memory instruction can issue.
 252500: system.cpu.iq: Instruction is ready to issue, putting it onto the ready list, PC (0x41852c=>0x418530).(0=>1) opclass:48 [sn:42].
 252500: system.cpu.iq: Waking up a dependent instruction, [sn:39] PC (0x418528=>0x41852c).(0=>1).
 252500: global: [sn:39] has 1 ready out of 1 sources. RTI 0)
 252500: system.cpu.iq: Instruction is ready to issue, putting it onto the ready list, PC (0x418528=>0x41852c).(0=>1) opclass:1 [sn:39].
 252500: system.cpu.iq: Waking up a dependent instruction, [sn:36] PC (0x418524=>0x418528).(0=>1).
 252500: global: [sn:36] has 1 ready out of 1 sources. RTI 0)
 252500: system.cpu.iq: Instruction is ready to issue, putting it onto the ready list, PC (0x418524=>0x418528).(0=>1) opclass:1 [sn:36].
 252500: system.cpu.iq: Waking up a dependent instruction, [sn:31] PC (0x418518=>0x41851c).(0=>1).
 252500: global: [sn:31] has 1 ready out of 1 sources. RTI 0)
 252500: system.cpu.iq: Instruction is ready to issue, putting it onto the ready list, PC (0x418518=>0x41851c).(0=>1) opclass:1 [sn:31].
 252500: system.cpu.iq: Waking up a dependent instruction, [sn:27] PC (0x418510=>0x418514).(0=>1).
 252500: global: [sn:27] has 1 ready out of 1 sources. RTI 0)
 252500: system.cpu.iq: Instruction is ready to issue, putting it onto the ready list, PC (0x418510=>0x418514).(0=>1) opclass:1 [sn:27].
 252500: system.cpu.iq: Waking up a dependent instruction, [sn:25] PC (0x418508=>0x41850c).(0=>1).
 252500: global: [sn:25] has 1 ready out of 1 sources. RTI 0)
 252500: system.cpu.iq: Instruction is ready to issue, putting it onto the ready list, PC (0x418508=>0x41850c).(0=>1) opclass:1 [sn:25].
 252500: system.cpu.iq: Waking dependents of completed instruction.
 252500: system.cpu.iq: Waking any dependents on register 67 (IntRegClass).
 252500: system.cpu.iq: Waking dependents of completed instruction.
 252500: system.cpu.iq: Waking any dependents on register 69 (IntRegClass).
 252500: system.cpu.iq: Waking dependents of completed instruction.
 252500: system.cpu.iq: Waking any dependents on register 70 (IntRegClass).
 252500: system.cpu.iq: Attempting to schedule ready instructions from the IQ.
 252500: system.cpu.iq: Thread 0: Issuing instruction PC (0x418508=>0x41850c).(0=>1) [sn:25]
 252500: system.cpu.iq: Thread 0: Issuing instruction PC (0x418510=>0x418514).(0=>1) [sn:27]
 252500: system.cpu.iq: Thread 0: Issuing instruction PC (0x418518=>0x41851c).(0=>1) [sn:31]
 252500: system.cpu.iq: Thread 0: Issuing instruction PC (0x418524=>0x418528).(0=>1) [sn:36]
 252500: system.cpu.iq: Thread 0: Issuing instruction PC (0x418528=>0x41852c).(0=>1) [sn:39]
 252500: system.cpu.iq: Thread 0: Issuing instruction PC (0x41852c=>0x418530).(0=>1) [sn:42]
 252500: system.cpu.iew.lsq.thread0: LQ size: 32, #loads occupied: 2
 252500: system.cpu.iew.lsq.thread0: SQ size: 32, #stores occupied: 12
 252500: system.cpu.rob: Adding inst PC (0x418534=>0x418538).(0=>1) to the ROB.
 252500: system.cpu.rob: [tid:0] Getting Tail Bank: 7
 252500: system.cpu.rob: [tid:0] Now has 41 instructions.
 252500: system.cpu.rob: Adding inst PC (0x418538=>0x41853c).(0=>1) to the ROB.
 252500: system.cpu.rob: [tid:0] Getting Tail Bank: 8
 252500: system.cpu.rob: [tid:0] Now has 42 instructions.
 252500: system.cpu.rob: Adding inst PC (0x418538=>0x41853c).(1=>2) to the ROB.
 252500: system.cpu.rob: [tid:0] Getting Tail Bank: 9
 252500: system.cpu.rob: [tid:0] Now has 43 instructions.
 252500: system.cpu.rob: Adding inst PC (0x418538=>0x41853c).(2=>3) to the ROB.
 252500: system.cpu.rob: [tid:0] Getting Tail Bank: 10
 252500: system.cpu.rob: [tid:0] Now has 44 instructions.
 252500: system.cpu.rob: Adding inst PC (0x41853c=>0x418540).(0=>1) to the ROB.
 252500: system.cpu.rob: [tid:0] Getting Tail Bank: 11
 252500: system.cpu.rob: [tid:0] Now has 45 instructions.
 252500: system.cpu.rob: [tid:0] Getting Head Bank: 0
 252500: system.cpu.rob: [tid:0] Checking if head is ready. Head bank: 0 size=3
 252500: system.cpu.rob: [tid:0] Reading Head Instr.
 252500: system.cpu.rob: [tid:0] Getting Head Bank: 0
 252500: system.cpu.rob: [tid:0] Reading Head Instr.
 252500: system.cpu.rob: [tid:0] Getting Head Bank: 0
 253000: system.cpu.iq: Adding instruction [sn:44] PC (0x418534=>0x418538).(0=>1) to the IQ.
 253000: system.cpu.iq: Instruction is ready to issue, putting it onto the ready list, PC (0x418534=>0x418538).(0=>1) opclass:1 [sn:44].
 253000: system.cpu.iq: Adding instruction [sn:45] PC (0x418538=>0x41853c).(0=>1) to the IQ.
 253000: system.cpu.iq: Instruction PC (0x418538=>0x41853c).(0=>1) has src reg 62 (IntRegClass) that became ready before it reached the IQ.
 253000: global: [sn:45] has 1 ready out of 1 sources. RTI 0)
 253000: system.cpu.iq: Instruction is ready to issue, putting it onto the ready list, PC (0x418538=>0x41853c).(0=>1) opclass:1 [sn:45].
 253000: system.cpu.iew.lsq.thread0: Inserting store PC (0x418538=>0x41853c).(1=>2), idx:12 [sn:46]
 253000: system.cpu.iq: Adding instruction [sn:46] PC (0x418538=>0x41853c).(1=>2) to the IQ.
 253000: system.cpu.iq: Instruction PC (0x418538=>0x41853c).(1=>2) has src reg 74 (IntRegClass) that is being added to the dependency chain.
 253000: system.cpu.iew.lsq.thread0: Inserting store PC (0x418538=>0x41853c).(2=>3), idx:13 [sn:47]
 253000: system.cpu.iq: Adding instruction [sn:47] PC (0x418538=>0x41853c).(2=>3) to the IQ.
 253000: system.cpu.iq: Instruction PC (0x418538=>0x41853c).(2=>3) has src reg 74 (IntRegClass) that is being added to the dependency chain.
 253000: system.cpu.iq: Adding instruction [sn:48] PC (0x41853c=>0x418540).(0=>1) to the IQ.
 253000: system.cpu.iq: Instruction PC (0x41853c=>0x418540).(0=>1) has src reg 65 (IntRegClass) that is being added to the dependency chain.
 253000: system.cpu.iew.lsq.thread0: Executing store PC (0x41852c=>0x418530).(0=>1) [sn:42]
 253000: system.cpu.iew.lsq.thread0: Doing write to store idx 10, addr 0x320c70 | storeHead:0 [sn:42]
 253000: system.cpu.iq: Waking dependents of completed instruction.
 253000: system.cpu.iq: Waking any dependents on register 64 (IntRegClass).
 253000: system.cpu.iq: Waking dependents of completed instruction.
 253000: system.cpu.iq: Waking any dependents on register 66 (IntRegClass).
 253000: system.cpu.iq: Waking up a dependent instruction, [sn:29] PC (0x418510=>0x418514).(2=>3).
 253000: global: [sn:29] has 2 ready out of 2 sources. RTI 0)
 253000: system.cpu.iq: Checking if memory instruction can issue.
 253000: system.cpu.iq: Instruction is ready to issue, putting it onto the ready list, PC (0x418510=>0x418514).(2=>3) opclass:48 [sn:29].
 253000: system.cpu.iq: Waking up a dependent instruction, [sn:28] PC (0x418510=>0x418514).(1=>2).
 253000: global: [sn:28] has 2 ready out of 2 sources. RTI 0)
 253000: system.cpu.iq: Checking if memory instruction can issue.
 253000: system.cpu.iq: Instruction is ready to issue, putting it onto the ready list, PC (0x418510=>0x418514).(1=>2) opclass:48 [sn:28].
 253000: system.cpu.iq: Waking dependents of completed instruction.
 253000: system.cpu.iq: Waking any dependents on register 68 (IntRegClass).
 253000: system.cpu.iq: Waking up a dependent instruction, [sn:33] PC (0x418518=>0x41851c).(2=>3).
 253000: global: [sn:33] has 2 ready out of 2 sources. RTI 0)
 253000: system.cpu.iq: Checking if memory instruction can issue.
 253000: system.cpu.iq: Instruction is ready to issue, putting it onto the ready list, PC (0x418518=>0x41851c).(2=>3) opclass:48 [sn:33].
 253000: system.cpu.iq: Waking up a dependent instruction, [sn:32] PC (0x418518=>0x41851c).(1=>2).
 253000: global: [sn:32] has 2 ready out of 2 sources. RTI 0)
 253000: system.cpu.iq: Checking if memory instruction can issue.
 253000: system.cpu.iq: Instruction is ready to issue, putting it onto the ready list, PC (0x418518=>0x41851c).(1=>2) opclass:48 [sn:32].
 253000: system.cpu.iq: Waking dependents of completed instruction.
 253000: system.cpu.iq: Waking any dependents on register 71 (IntRegClass).
 253000: system.cpu.iq: Waking up a dependent instruction, [sn:38] PC (0x418524=>0x418528).(2=>3).
 253000: global: [sn:38] has 2 ready out of 2 sources. RTI 0)
 253000: system.cpu.iq: Checking if memory instruction can issue.
 253000: system.cpu.iq: Instruction is ready to issue, putting it onto the ready list, PC (0x418524=>0x418528).(2=>3) opclass:48 [sn:38].
 253000: system.cpu.iq: Waking up a dependent instruction, [sn:37] PC (0x418524=>0x418528).(1=>2).
 253000: global: [sn:37] has 2 ready out of 2 sources. RTI 0)
 253000: system.cpu.iq: Checking if memory instruction can issue.
 253000: system.cpu.iq: Instruction is ready to issue, putting it onto the ready list, PC (0x418524=>0x418528).(1=>2) opclass:48 [sn:37].
 253000: system.cpu.iq: Waking dependents of completed instruction.
 253000: system.cpu.iq: Waking any dependents on register 72 (IntRegClass).
 253000: system.cpu.iq: Waking up a dependent instruction, [sn:41] PC (0x418528=>0x41852c).(2=>3).
 253000: global: [sn:41] has 2 ready out of 2 sources. RTI 0)
 253000: system.cpu.iq: Checking if memory instruction can issue.
 253000: system.cpu.iq: Instruction is ready to issue, putting it onto the ready list, PC (0x418528=>0x41852c).(2=>3) opclass:48 [sn:41].
 253000: system.cpu.iq: Waking up a dependent instruction, [sn:40] PC (0x418528=>0x41852c).(1=>2).
 253000: global: [sn:40] has 2 ready out of 2 sources. RTI 0)
 253000: system.cpu.iq: Checking if memory instruction can issue.
 253000: system.cpu.iq: Instruction is ready to issue, putting it onto the ready list, PC (0x418528=>0x41852c).(1=>2) opclass:48 [sn:40].
 253000: system.cpu.iq: Waking dependents of completed instruction.
 253000: system.cpu.iq: Completing mem instruction PC: (0x41852c=>0x418530).(0=>1) [sn:42]
 253000: system.cpu.iq: Attempting to schedule ready instructions from the IQ.
 253000: system.cpu.iq: Thread 0: Issuing instruction PC (0x418510=>0x418514).(1=>2) [sn:28]
 253000: system.cpu.iq: Thread 0: Issuing instruction PC (0x418510=>0x418514).(2=>3) [sn:29]
 253000: system.cpu.iq: Thread 0: Issuing instruction PC (0x418518=>0x41851c).(1=>2) [sn:32]
 253000: system.cpu.iq: Thread 0: Issuing instruction PC (0x418518=>0x41851c).(2=>3) [sn:33]
 253000: system.cpu.iq: Thread 0: Issuing instruction PC (0x418534=>0x418538).(0=>1) [sn:44]
 253000: system.cpu.iq: Thread 0: Issuing instruction PC (0x418538=>0x41853c).(0=>1) [sn:45]
 253000: system.cpu.iew.lsq.thread0: LQ size: 32, #loads occupied: 2
 253000: system.cpu.iew.lsq.thread0: SQ size: 32, #stores occupied: 14
 253000: system.cpu.rob: [tid:0] Getting Head Bank: 0
 253000: system.cpu.rob: [tid:0] Checking if head is ready. Head bank: 0 size=3
 253000: system.cpu.rob: [tid:0] Reading Head Instr.
 253000: system.cpu.rob: [tid:0] Getting Head Bank: 0
 253000: system.cpu.rob: [tid:0] Reading Head Instr.
 253000: system.cpu.rob: [tid:0] Getting Head Bank: 0
 253500: system.cpu.iew.lsq.thread0: Executing store PC (0x418510=>0x418514).(1=>2) [sn:28]
 253500: system.cpu.iew.lsq.thread0: Doing write to store idx 2, addr 0x320c30 | storeHead:0 [sn:28]
 253500: system.cpu.iew.lsq.thread0: Executing store PC (0x418510=>0x418514).(2=>3) [sn:29]
 253500: system.cpu.iew.lsq.thread0: Doing write to store idx 3, addr 0x320c38 | storeHead:0 [sn:29]
 253500: system.cpu.iew.lsq.thread0: Executing store PC (0x418518=>0x41851c).(1=>2) [sn:32]
 253500: system.cpu.iew.lsq.thread0: Doing write to store idx 4, addr 0x320c40 | storeHead:0 [sn:32]
 253500: system.cpu.iew.lsq.thread0: Executing store PC (0x418518=>0x41851c).(2=>3) [sn:33]
 253500: system.cpu.iew.lsq.thread0: Doing write to store idx 5, addr 0x320c48 | storeHead:0 [sn:33]
 253500: system.cpu.iq: Waking dependents of completed instruction.
 253500: system.cpu.iq: Completing mem instruction PC: (0x418510=>0x418514).(1=>2) [sn:28]
 253500: system.cpu.iq: Waking dependents of completed instruction.
 253500: system.cpu.iq: Completing mem instruction PC: (0x418510=>0x418514).(2=>3) [sn:29]
 253500: system.cpu.iq: Waking dependents of completed instruction.
 253500: system.cpu.iq: Completing mem instruction PC: (0x418518=>0x41851c).(1=>2) [sn:32]
 253500: system.cpu.iq: Waking dependents of completed instruction.
 253500: system.cpu.iq: Completing mem instruction PC: (0x418518=>0x41851c).(2=>3) [sn:33]
 253500: system.cpu.iq: Waking dependents of completed instruction.
 253500: system.cpu.iq: Waking any dependents on register 73 (IntRegClass).
 253500: system.cpu.iq: Waking dependents of completed instruction.
 253500: system.cpu.iq: Waking any dependents on register 74 (IntRegClass).
 253500: system.cpu.iq: Waking up a dependent instruction, [sn:47] PC (0x418538=>0x41853c).(2=>3).
 253500: global: [sn:47] has 2 ready out of 2 sources. RTI 0)
 253500: system.cpu.iq: Checking if memory instruction can issue.
 253500: system.cpu.iq: Instruction is ready to issue, putting it onto the ready list, PC (0x418538=>0x41853c).(2=>3) opclass:48 [sn:47].
 253500: system.cpu.iq: Waking up a dependent instruction, [sn:46] PC (0x418538=>0x41853c).(1=>2).
 253500: global: [sn:46] has 2 ready out of 2 sources. RTI 0)
 253500: system.cpu.iq: Checking if memory instruction can issue.
 253500: system.cpu.iq: Instruction is ready to issue, putting it onto the ready list, PC (0x418538=>0x41853c).(1=>2) opclass:48 [sn:46].
 253500: system.cpu.iq: Attempting to schedule ready instructions from the IQ.
 253500: system.cpu.iq: Thread 0: Issuing instruction PC (0x418524=>0x418528).(1=>2) [sn:37]
 253500: system.cpu.iq: Thread 0: Issuing instruction PC (0x418524=>0x418528).(2=>3) [sn:38]
 253500: system.cpu.iq: Thread 0: Issuing instruction PC (0x418528=>0x41852c).(1=>2) [sn:40]
 253500: system.cpu.iq: Thread 0: Issuing instruction PC (0x418528=>0x41852c).(2=>3) [sn:41]
 253500: system.cpu.iew.lsq.thread0: LQ size: 32, #loads occupied: 2
 253500: system.cpu.iew.lsq.thread0: SQ size: 32, #stores occupied: 14
 253500: system.cpu.rob: [tid:0] Getting Head Bank: 0
 253500: system.cpu.rob: [tid:0] Checking if head is ready. Head bank: 0 size=3
 253500: system.cpu.rob: [tid:0] Reading Head Instr.
 253500: system.cpu.rob: [tid:0] Getting Head Bank: 0
 253500: system.cpu.rob: [tid:0] Reading Head Instr.
 253500: system.cpu.rob: [tid:0] Getting Head Bank: 0
 254000: system.cpu.iew.lsq.thread0: Executing store PC (0x418524=>0x418528).(1=>2) [sn:37]
 254000: system.cpu.iew.lsq.thread0: Doing write to store idx 6, addr 0x320c50 | storeHead:0 [sn:37]
 254000: system.cpu.iew.lsq.thread0: Executing store PC (0x418524=>0x418528).(2=>3) [sn:38]
 254000: system.cpu.iew.lsq.thread0: Doing write to store idx 7, addr 0x320c58 | storeHead:0 [sn:38]
 254000: system.cpu.iew.lsq.thread0: Executing store PC (0x418528=>0x41852c).(1=>2) [sn:40]
 254000: system.cpu.iew.lsq.thread0: Doing write to store idx 8, addr 0x320c60 | storeHead:0 [sn:40]
 254000: system.cpu.iew.lsq.thread0: Executing store PC (0x418528=>0x41852c).(2=>3) [sn:41]
 254000: system.cpu.iew.lsq.thread0: Doing write to store idx 9, addr 0x320c68 | storeHead:0 [sn:41]
 254000: system.cpu.iq: Waking dependents of completed instruction.
 254000: system.cpu.iq: Completing mem instruction PC: (0x418524=>0x418528).(1=>2) [sn:37]
 254000: system.cpu.iq: Waking dependents of completed instruction.
 254000: system.cpu.iq: Completing mem instruction PC: (0x418524=>0x418528).(2=>3) [sn:38]
 254000: system.cpu.iq: Waking dependents of completed instruction.
 254000: system.cpu.iq: Completing mem instruction PC: (0x418528=>0x41852c).(1=>2) [sn:40]
 254000: system.cpu.iq: Waking dependents of completed instruction.
 254000: system.cpu.iq: Completing mem instruction PC: (0x418528=>0x41852c).(2=>3) [sn:41]
 254000: system.cpu.iq: Attempting to schedule ready instructions from the IQ.
 254000: system.cpu.iq: Thread 0: Issuing instruction PC (0x418538=>0x41853c).(1=>2) [sn:46]
 254000: system.cpu.iq: Thread 0: Issuing instruction PC (0x418538=>0x41853c).(2=>3) [sn:47]
 254000: system.cpu.iew.lsq.thread0: LQ size: 32, #loads occupied: 2
 254000: system.cpu.iew.lsq.thread0: SQ size: 32, #stores occupied: 14
 254000: system.cpu.rob: [tid:0] Getting Head Bank: 0
 254000: system.cpu.rob: [tid:0] Checking if head is ready. Head bank: 0 size=3
 254000: system.cpu.rob: [tid:0] Reading Head Instr.
 254000: system.cpu.rob: [tid:0] Getting Head Bank: 0
 254000: system.cpu.rob: [tid:0] Reading Head Instr.
 254000: system.cpu.rob: [tid:0] Getting Head Bank: 0
 254500: system.cpu.iew.lsq.thread0: Executing store PC (0x418538=>0x41853c).(1=>2) [sn:46]
 254500: system.cpu.iew.lsq.thread0: Doing write to store idx 12, addr 0x320c90 | storeHead:0 [sn:46]
 254500: system.cpu.iew.lsq.thread0: Executing store PC (0x418538=>0x41853c).(2=>3) [sn:47]
 254500: system.cpu.iew.lsq.thread0: Doing write to store idx 13, addr 0x320c98 | storeHead:0 [sn:47]
 254500: system.cpu.iq: Waking dependents of completed instruction.
 254500: system.cpu.iq: Completing mem instruction PC: (0x418538=>0x41853c).(1=>2) [sn:46]
 254500: system.cpu.iq: Waking dependents of completed instruction.
 254500: system.cpu.iq: Completing mem instruction PC: (0x418538=>0x41853c).(2=>3) [sn:47]
 254500: system.cpu.iq: Attempting to schedule ready instructions from the IQ.
 254500: system.cpu.iq: Not able to schedule any instructions.
 254500: system.cpu.iew.lsq.thread0: LQ size: 32, #loads occupied: 2
 254500: system.cpu.iew.lsq.thread0: SQ size: 32, #stores occupied: 14
 254500: system.cpu.rob: [tid:0] Getting Head Bank: 0
 254500: system.cpu.rob: [tid:0] Checking if head is ready. Head bank: 0 size=3
 254500: system.cpu.rob: [tid:0] Reading Head Instr.
 254500: system.cpu.rob: [tid:0] Getting Head Bank: 0
 254500: system.cpu.rob: [tid:0] Reading Head Instr.
 254500: system.cpu.rob: [tid:0] Getting Head Bank: 0
 255000: system.cpu.iq: Attempting to schedule ready instructions from the IQ.
 255000: system.cpu.iq: Not able to schedule any instructions.
 255000: system.cpu.rob: [tid:0] Getting Head Bank: 0
 255000: system.cpu.rob: [tid:0] Checking if head is ready. Head bank: 0 size=3
 255000: system.cpu.rob: [tid:0] Reading Head Instr.
 255000: system.cpu.rob: [tid:0] Getting Head Bank: 0
 255000: system.cpu.rob: [tid:0] Reading Head Instr.
 255000: system.cpu.rob: [tid:0] Getting Head Bank: 0
 255500: system.cpu.iq: Attempting to schedule ready instructions from the IQ.
 255500: system.cpu.iq: Not able to schedule any instructions.
 255500: system.cpu.rob: [tid:0] Getting Head Bank: 0
 255500: system.cpu.rob: [tid:0] Checking if head is ready. Head bank: 0 size=3
 255500: system.cpu.rob: [tid:0] Reading Head Instr.
 255500: system.cpu.rob: [tid:0] Getting Head Bank: 0
 255500: system.cpu.rob: [tid:0] Reading Head Instr.
 255500: system.cpu.rob: [tid:0] Getting Head Bank: 0
 256000: system.cpu.iq: Attempting to schedule ready instructions from the IQ.
 256000: system.cpu.iq: Not able to schedule any instructions.
 256000: system.cpu.rob: [tid:0] Getting Head Bank: 0
 256000: system.cpu.rob: [tid:0] Checking if head is ready. Head bank: 0 size=3
 256000: system.cpu.rob: [tid:0] Reading Head Instr.
 256000: system.cpu.rob: [tid:0] Getting Head Bank: 0
 256000: system.cpu.rob: [tid:0] Reading Head Instr.
 256000: system.cpu.rob: [tid:0] Getting Head Bank: 0
 256500: system.cpu.iq: Attempting to schedule ready instructions from the IQ.
 256500: system.cpu.iq: Not able to schedule any instructions.
 256500: system.cpu.rob: [tid:0] Getting Head Bank: 0
 256500: system.cpu.rob: [tid:0] Checking if head is ready. Head bank: 0 size=3
 256500: system.cpu.rob: [tid:0] Reading Head Instr.
 256500: system.cpu.rob: [tid:0] Getting Head Bank: 0
 256500: system.cpu.rob: [tid:0] Reading Head Instr.
 256500: system.cpu.rob: [tid:0] Getting Head Bank: 0
 257000: system.cpu.iq: Attempting to schedule ready instructions from the IQ.
 257000: system.cpu.iq: Not able to schedule any instructions.
 257000: system.cpu.rob: [tid:0] Getting Head Bank: 0
 257000: system.cpu.rob: [tid:0] Checking if head is ready. Head bank: 0 size=3
 257000: system.cpu.rob: [tid:0] Reading Head Instr.
 257000: system.cpu.rob: [tid:0] Getting Head Bank: 0
 257000: system.cpu.rob: [tid:0] Reading Head Instr.
 257000: system.cpu.rob: [tid:0] Getting Head Bank: 0
 257500: system.cpu.iq: Attempting to schedule ready instructions from the IQ.
 257500: system.cpu.iq: Not able to schedule any instructions.
 257500: system.cpu.rob: [tid:0] Getting Head Bank: 0
 257500: system.cpu.rob: [tid:0] Checking if head is ready. Head bank: 0 size=3
 257500: system.cpu.rob: [tid:0] Reading Head Instr.
 257500: system.cpu.rob: [tid:0] Getting Head Bank: 0
 257500: system.cpu.rob: [tid:0] Reading Head Instr.
 257500: system.cpu.rob: [tid:0] Getting Head Bank: 0
 258000: system.cpu.iq: Attempting to schedule ready instructions from the IQ.
 258000: system.cpu.iq: Not able to schedule any instructions.
 258000: system.cpu.rob: [tid:0] Getting Head Bank: 0
 258000: system.cpu.rob: [tid:0] Checking if head is ready. Head bank: 0 size=3
 258000: system.cpu.rob: [tid:0] Reading Head Instr.
 258000: system.cpu.rob: [tid:0] Getting Head Bank: 0
 258000: system.cpu.rob: [tid:0] Reading Head Instr.
 258000: system.cpu.rob: [tid:0] Getting Head Bank: 0
 258500: system.cpu.iq: Attempting to schedule ready instructions from the IQ.
 258500: system.cpu.iq: Not able to schedule any instructions.
 258500: system.cpu.rob: [tid:0] Getting Head Bank: 0
 258500: system.cpu.rob: [tid:0] Checking if head is ready. Head bank: 0 size=3
 258500: system.cpu.rob: [tid:0] Reading Head Instr.
 258500: system.cpu.rob: [tid:0] Getting Head Bank: 0
 258500: system.cpu.rob: [tid:0] Reading Head Instr.
 258500: system.cpu.rob: [tid:0] Getting Head Bank: 0
 259000: system.cpu.iq: Attempting to schedule ready instructions from the IQ.
 259000: system.cpu.iq: Not able to schedule any instructions.
 259000: system.cpu.rob: [tid:0] Getting Head Bank: 0
 259000: system.cpu.rob: [tid:0] Checking if head is ready. Head bank: 0 size=3
 259000: system.cpu.rob: [tid:0] Reading Head Instr.
 259000: system.cpu.rob: [tid:0] Getting Head Bank: 0
 259000: system.cpu.rob: [tid:0] Reading Head Instr.
 259000: system.cpu.rob: [tid:0] Getting Head Bank: 0
 259500: system.cpu.iq: Attempting to schedule ready instructions from the IQ.
 259500: system.cpu.iq: Not able to schedule any instructions.
 259500: system.cpu.rob: [tid:0] Getting Head Bank: 0
 259500: system.cpu.rob: [tid:0] Checking if head is ready. Head bank: 0 size=3
 259500: system.cpu.rob: [tid:0] Reading Head Instr.
 259500: system.cpu.rob: [tid:0] Getting Head Bank: 0
 259500: system.cpu.rob: [tid:0] Reading Head Instr.
 259500: system.cpu.rob: [tid:0] Getting Head Bank: 0
 269500: system.cpu.iq: Waking dependents of completed instruction.
 269500: system.cpu.iq: Completing mem instruction PC: (0x401f00=>0x401f04).(0=>1) [sn:4]
 269500: system.cpu.iq: Waking any dependents on register 45 (IntRegClass).
 269500: system.cpu.iq: Waking up a dependent instruction, [sn:43] PC (0x418530=>0x418534).(0=>1).
 269500: global: [sn:43] has 2 ready out of 2 sources. RTI 0)
 269500: system.cpu.iq: Checking if memory instruction can issue.
 269500: system.cpu.iq: Instruction is ready to issue, putting it onto the ready list, PC (0x418530=>0x418534).(0=>1) opclass:48 [sn:43].
 269500: system.cpu.iq: Clearing WIB entry of the waiting load with destination register (45) and WIB Index (16383)
 269500: system.cpu.iq: Attempting to schedule ready instructions from the IQ.
 269500: system.cpu.iq: Getting wait bit for reg 45: 0
 269500: system.cpu.iq: Thread 0: Issuing instruction PC (0x418530=>0x418534).(0=>1) [sn:43]
 269500: system.cpu.rob: [tid:0] Getting Head Bank: 0
 269500: system.cpu.rob: [tid:0] Checking if head is ready. Head bank: 0 size=3
 269500: system.cpu.rob: [tid:0] Reading Head Instr.
 269500: system.cpu.rob: [tid:0] Getting Head Bank: 0
 269500: system.cpu.rob: [tid:0] Reading Head Instr.
 269500: system.cpu.rob: [tid:0] Getting Head Bank: 0
 270000: system.cpu.iew.lsq.thread0: Executing store PC (0x418530=>0x418534).(0=>1) [sn:43]
 270000: system.cpu.iew.lsq.thread0: Doing write to store idx 11, addr 0x320c8c | storeHead:0 [sn:43]
 270000: system.cpu.iq: Waking dependents of completed instruction.
 270000: system.cpu.iq: Completing mem instruction PC: (0x418530=>0x418534).(0=>1) [sn:43]
 270000: system.cpu.iq: Attempting to schedule ready instructions from the IQ.
 270000: system.cpu.iq: Not able to schedule any instructions.
[...]
 341500: system.cpu.rob: [tid:0] Getting Head Bank: 14
 341500: system.cpu.rob: [tid:0] Getting Head Bank: 14
 341500: system.cpu.rob: [tid:0] Retiring head instruction, instruction PC (0x41851c=>0x418520).(0=>1), [sn:34]
 341500: system.cpu.rob: Updating global head ptr.
 341500: system.cpu.rob: [tid:0] Getting Head Bank: 15
 341500: system.cpu.rob: [tid:0] Getting Tail Bank: 13
 341500: system.cpu.rob: [tid:0] Getting Head Bank: 15
 341500: system.cpu.rob: [tid:0] Checking if head is ready. Head bank: 15 size=2
 341500: system.cpu.rob: [tid:0] Reading Head Instr.
 341500: system.cpu.rob: [tid:0] Getting Head Bank: 15
 341500: system.cpu.rob: [tid:0] Getting Head Bank: 15
 341500: system.cpu.rob: [tid:0] Retiring head instruction, instruction PC (0x418520=>0x418524).(0=>1), [sn:35]
 341500: system.cpu.rob: Updating global head ptr.
 341500: system.cpu.rob: [tid:0] Getting Head Bank: 0
 341500: system.cpu.rob: [tid:0] Getting Tail Bank: 13
 341500: system.cpu.rob: [tid:0] Getting Head Bank: 0
 341500: system.cpu.rob: [tid:0] Checking if head is ready. Head bank: 0 size=2
 341500: system.cpu.rob: [tid:0] Reading Head Instr.
 341500: system.cpu.rob: [tid:0] Getting Head Bank: 0
 341500: system.cpu.rob: [tid:0] Getting Head Bank: 0
 341500: system.cpu.rob: [tid:0] Retiring head instruction, instruction PC (0x41857c=>0x418580).(0=>1), [sn:65]
 341500: system.cpu.rob: Updating global head ptr.
 341500: system.cpu.rob: [tid:0] Getting Head Bank: 1
 341500: system.cpu.rob: [tid:0] Getting Tail Bank: 13
 341500: system.cpu.rob: [tid:0] Getting Head Bank: 1
 341500: system.cpu.rob: [tid:0] Checking if head is ready. Head bank: 1 size=2
 341500: system.cpu.rob: [tid:0] Reading Head Instr.
 341500: system.cpu.rob: [tid:0] Getting Head Bank: 1
 341500: system.cpu.rob: [tid:0] Getting Head Bank: 1
 341500: system.cpu.rob: [tid:0] Retiring head instruction, instruction PC (0x418524=>0x418528).(1=>2), [sn:37]
 341500: system.cpu.rob: Updating global head ptr.
 341500: system.cpu.rob: [tid:0] Getting Head Bank: 2
 341500: system.cpu.rob: [tid:0] Getting Tail Bank: 13
 341500: system.cpu.rob: [tid:0] Getting Head Bank: 2
 341500: system.cpu.rob: [tid:0] Checking if head is ready. Head bank: 2 size=2
 341500: system.cpu.rob: [tid:0] Reading Head Instr.
 341500: system.cpu.rob: [tid:0] Getting Head Bank: 2
 341500: system.cpu.rob: [tid:0] Getting Head Bank: 2
 341500: system.cpu.rob: [tid:0] Retiring head instruction, instruction PC (0x418524=>0x418528).(2=>3), [sn:38]
 341500: system.cpu.rob: Updating global head ptr.
 341500: system.cpu.rob: [tid:0] Getting Head Bank: 3
 341500: system.cpu.rob: [tid:0] Getting Tail Bank: 13
 341500: system.cpu.rob: [tid:0] Getting Head Bank: 3
 341500: system.cpu.rob: [tid:0] Checking if head is ready. Head bank: 3 size=2
 341500: system.cpu.rob: [tid:0] Reading Head Instr.
 341500: system.cpu.rob: [tid:0] Getting Head Bank: 3
 341500: system.cpu.rob: [tid:0] Getting Head Bank: 3
 341500: system.cpu.rob: [tid:0] Retiring head instruction, instruction PC (0x418528=>0x41852c).(0=>1), [sn:39]
 341500: system.cpu.rob: Updating global head ptr.
 341500: system.cpu.rob: [tid:0] Getting Head Bank: 4
 341500: system.cpu.rob: [tid:0] Getting Tail Bank: 13
 341500: system.cpu.rob: [tid:0] Getting Head Bank: 4
 341500: system.cpu.rob: [tid:0] Checking if head is ready. Head bank: 4 size=2
 341500: system.cpu.rob: [tid:0] Reading Head Instr.
 341500: system.cpu.rob: [tid:0] Getting Head Bank: 4
 341500: system.cpu.rob: [tid:0] Getting Head Bank: 4
 341500: system.cpu.rob: [tid:0] Retiring head instruction, instruction PC (0x418528=>0x41852c).(1=>2), [sn:40]
 341500: system.cpu.rob: Updating global head ptr.
 341500: system.cpu.rob: [tid:0] Getting Head Bank: 5
 341500: system.cpu.rob: [tid:0] Getting Tail Bank: 13
 341500: system.cpu.rob: [tid:0] Getting Head Bank: 5
 341500: system.cpu.rob: [tid:0] Checking if head is ready. Head bank: 5 size=2
 341500: system.cpu.rob: [tid:0] Reading Head Instr.
 341500: system.cpu.rob: [tid:0] Getting Head Bank: 5
 341500: system.cpu.rob: [tid:0] Getting Head Bank: 5
 341500: system.cpu.rob: [tid:0] Retiring head instruction, instruction PC (0x418528=>0x41852c).(2=>3), [sn:41]
 341500: system.cpu.rob: Updating global head ptr.
 341500: system.cpu.rob: [tid:0] Getting Head Bank: 6
 341500: system.cpu.rob: [tid:0] Getting Tail Bank: 13
 341500: system.cpu.rob: [tid:0] Getting Head Bank: 6
 341500: system.cpu.rob: [tid:0] Checking if head is ready. Head bank: 6 size=2
 341500: system.cpu.rob: [tid:0] Reading Head Instr.
 341500: system.cpu.rob: [tid:0] Getting Head Bank: 6
 341500: system.cpu.rob: [tid:0] Getting Head Bank: 6
 341500: system.cpu.rob: [tid:0] Retiring head instruction, instruction PC (0x41852c=>0x418530).(0=>1), [sn:42]
 341500: system.cpu.rob: Updating global head ptr.
 341500: system.cpu.rob: [tid:0] Getting Head Bank: 7
 341500: system.cpu.rob: [tid:0] Getting Tail Bank: 13
 341500: system.cpu.rob: [tid:0] Reading Head Instr.
 341500: system.cpu.rob: [tid:0] Getting Head Bank: 7
 341500: system.cpu.rob: [tid:0] Reading Head Instr.
 341500: system.cpu.rob: [tid:0] Getting Head Bank: 7
 342000: system.cpu.iq: Attempting to schedule ready instructions from the IQ.
 342000: system.cpu.iq: Not able to schedule any instructions.
 342000: system.cpu.iew.lsq.thread0: D-Cache: Writing back store idx:3 PC:(0x418510=>0x418514).(1=>2) to Addr:0x320c30, data:0 [sn:28]
 342000: system.cpu.iew.lsq.thread0: Memory request (pkt: WriteReq [320c30:320c37]) from inst [sn:28] was sent (cache is blocked: 0, cache_got_blocked: 0)
 342000: system.cpu.iew.lsq.thread0: D-Cache: Writing back store idx:4 PC:(0x418510=>0x418514).(2=>3) to Addr:0x320c38, data:0 [sn:29]
 342000: system.cpu.iew.lsq.thread0: Memory request (pkt: WriteReq [320c38:320c3f]) from inst [sn:29] was sent (cache is blocked: 0, cache_got_blocked: 0)
 342000: system.cpu.iew.lsq.thread0: D-Cache: Writing back store idx:5 PC:(0x418518=>0x41851c).(1=>2) to Addr:0x320c40, data:0 [sn:32]
 342000: system.cpu.iew.lsq.thread0: Memory request (pkt: WriteReq [320c40:320c47]) from inst [sn:32] was sent (cache is blocked: 0, cache_got_blocked: 0)
 342000: system.cpu.iew.lsq.thread0: D-Cache: Writing back store idx:6 PC:(0x418518=>0x41851c).(2=>3) to Addr:0x320c48, data:0 [sn:33]
 342000: system.cpu.iew.lsq.thread0: Memory request (pkt: WriteReq [320c48:320c4f]) from inst [sn:33] was sent (cache is blocked: 0, cache_got_blocked: 0)
 342000: system.cpu.iew.lsq.thread0: Marking store as able to write back, PC (0x418524=>0x418528).(1=>2) [sn:37]
 342000: system.cpu.iew.lsq.thread0: Marking store as able to write back, PC (0x418524=>0x418528).(2=>3) [sn:38]
 342000: system.cpu.iew.lsq.thread0: Marking store as able to write back, PC (0x418528=>0x41852c).(1=>2) [sn:40]
 342000: system.cpu.iew.lsq.thread0: Marking store as able to write back, PC (0x418528=>0x41852c).(2=>3) [sn:41]
 342000: system.cpu.iew.lsq.thread0: Marking store as able to write back, PC (0x41852c=>0x418530).(0=>1) [sn:42]
 342000: system.cpu.iq: [tid:0] Committing instructions older than [sn:42]
 342000: system.cpu.iew.lsq.thread0: LQ size: 32, #loads occupied: 0
 342000: system.cpu.iew.lsq.thread0: SQ size: 32, #stores occupied: 14
 342000: system.cpu.rob: [tid:0] Getting Head Bank: 7
 342000: system.cpu.rob: [tid:0] Checking if head is ready. Head bank: 7 size=2
 342000: system.cpu.rob: [tid:0] Reading Head Instr.
 342000: system.cpu.rob: [tid:0] Getting Head Bank: 7
 342000: system.cpu.rob: [tid:0] Getting Head Bank: 7
 342000: system.cpu.rob: [tid:0] Retiring head instruction, instruction PC (0x418530=>0x418534).(0=>1), [sn:43]
 342000: system.cpu.rob: Updating global head ptr.
 342000: system.cpu.rob: [tid:0] Getting Head Bank: 8
 342000: system.cpu.rob: [tid:0] Getting Tail Bank: 13
 342000: system.cpu.rob: [tid:0] Getting Head Bank: 8
 342000: system.cpu.rob: [tid:0] Checking if head is ready. Head bank: 8 size=2
 342000: system.cpu.rob: [tid:0] Reading Head Instr.
 342000: system.cpu.rob: [tid:0] Getting Head Bank: 8
 342000: system.cpu.rob: [tid:0] Getting Head Bank: 8
 342000: system.cpu.rob: [tid:0] Retiring head instruction, instruction PC (0x418534=>0x418538).(0=>1), [sn:44]
 342000: system.cpu.rob: Updating global head ptr.
 342000: system.cpu.rob: [tid:0] Getting Head Bank: 9
 342000: system.cpu.rob: [tid:0] Getting Tail Bank: 13
 342000: system.cpu.rob: [tid:0] Getting Head Bank: 9
 342000: system.cpu.rob: [tid:0] Checking if head is ready. Head bank: 9 size=2
 342000: system.cpu.rob: [tid:0] Reading Head Instr.
 342000: system.cpu.rob: [tid:0] Getting Head Bank: 9
 342000: system.cpu.rob: [tid:0] Getting Head Bank: 9
 342000: system.cpu.rob: [tid:0] Retiring head instruction, instruction PC (0x418538=>0x41853c).(0=>1), [sn:45]
 342000: system.cpu.rob: Updating global head ptr.
 342000: system.cpu.rob: [tid:0] Getting Head Bank: 10
 342000: system.cpu.rob: [tid:0] Getting Tail Bank: 13
 342000: system.cpu.rob: [tid:0] Getting Head Bank: 10
 342000: system.cpu.rob: [tid:0] Checking if head is ready. Head bank: 10 size=2
 342000: system.cpu.rob: [tid:0] Reading Head Instr.
 342000: system.cpu.rob: [tid:0] Getting Head Bank: 10
 342000: system.cpu.rob: [tid:0] Getting Head Bank: 10
 342000: system.cpu.rob: [tid:0] Retiring head instruction, instruction PC (0x418538=>0x41853c).(1=>2), [sn:46]
 342000: system.cpu.rob: Updating global head ptr.
 342000: system.cpu.rob: [tid:0] Getting Head Bank: 11
 342000: system.cpu.rob: [tid:0] Getting Tail Bank: 13
 342000: system.cpu.rob: [tid:0] Getting Head Bank: 11
 342000: system.cpu.rob: [tid:0] Checking if head is ready. Head bank: 11 size=2
 342000: system.cpu.rob: [tid:0] Reading Head Instr.
 342000: system.cpu.rob: [tid:0] Getting Head Bank: 11
 342000: system.cpu.rob: [tid:0] Getting Head Bank: 11
 342000: system.cpu.rob: [tid:0] Retiring head instruction, instruction PC (0x418538=>0x41853c).(2=>3), [sn:47]
 342000: system.cpu.rob: Updating global head ptr.
 342000: system.cpu.rob: [tid:0] Getting Head Bank: 12
 342000: system.cpu.rob: [tid:0] Getting Tail Bank: 13
 342000: system.cpu.rob: [tid:0] Getting Head Bank: 12
 342000: system.cpu.rob: [tid:0] Checking if head is ready. Head bank: 12 size=2
 342000: system.cpu.rob: [tid:0] Reading Head Instr.
 342000: system.cpu.rob: [tid:0] Getting Head Bank: 12
 342000: system.cpu.rob: [tid:0] Getting Head Bank: 12
 342000: system.cpu.rob: [tid:0] Retiring head instruction, instruction PC (0x41853c=>0x41854c).(0=>1), [sn:48]
 342000: system.cpu.rob: Updating global head ptr.
 342000: system.cpu.rob: [tid:0] Getting Head Bank: 13
 342000: system.cpu.rob: [tid:0] Getting Tail Bank: 13
 342000: system.cpu.rob: [tid:0] Getting Head Bank: 13
 342000: system.cpu.rob: [tid:0] Checking if head is ready. Head bank: 13 size=2
 342000: system.cpu.rob: [tid:0] Reading Head Instr.
 342000: system.cpu.rob: [tid:0] Getting Head Bank: 13
 342000: system.cpu.rob: [tid:0] Getting Head Bank: 13
 342000: system.cpu.rob: [tid:0] Retiring head instruction, instruction PC (0x418540=>0x418544).(0=>1), [sn:49]
 342000: system.cpu.rob: Updating global head ptr.
 342000: system.cpu.rob: [tid:0] Getting Head Bank: 14
 342000: system.cpu.rob: [tid:0] Getting Tail Bank: 13
 342000: system.cpu.rob: [tid:0] Getting Head Bank: 14
 342000: system.cpu.rob: [tid:0] Checking if head is ready. Head bank: 14 size=1
 342000: system.cpu.rob: [tid:0] Reading Head Instr.
 342000: system.cpu.rob: [tid:0] Getting Head Bank: 14
 342000: system.cpu.rob: [tid:0] Getting Head Bank: 14
 342000: system.cpu.rob: [tid:0] Retiring head instruction, instruction PC (0x418544=>0x418548).(0=>1), [sn:50]
 342000: system.cpu.rob: Updating global head ptr.
 342000: system.cpu.rob: [tid:0] Getting Head Bank: 15
 342000: system.cpu.rob: [tid:0] Getting Tail Bank: 13
 342000: system.cpu.rob: [tid:0] Getting Head Bank: 15
 342000: system.cpu.rob: [tid:0] Checking if head is ready. Head bank: 15 size=1
 342000: system.cpu.rob: [tid:0] Reading Head Instr.
 342000: system.cpu.rob: [tid:0] Getting Head Bank: 15
 342000: system.cpu.rob: [tid:0] Getting Head Bank: 15
 342000: system.cpu.rob: [tid:0] Retiring head instruction, instruction PC (0x418548=>0x41854c).(0=>1), [sn:51]
 342000: system.cpu.rob: Updating global head ptr.
 342000: system.cpu.rob: [tid:0] Getting Head Bank: 0
 342000: system.cpu.rob: [tid:0] Getting Tail Bank: 13
 342000: system.cpu.rob: [tid:0] Getting Head Bank: 0
 342000: system.cpu.rob: [tid:0] Checking if head is ready. Head bank: 0 size=1
 342000: system.cpu.rob: [tid:0] Reading Head Instr.
 342000: system.cpu.rob: [tid:0] Getting Head Bank: 0
 342000: system.cpu.rob: [tid:0] Getting Head Bank: 0
 342000: system.cpu.rob: [tid:0] Retiring head instruction, instruction PC (0x41854c=>0x418550).(0=>1), [sn:52]
 342000: system.cpu.rob: Updating global head ptr.
 342000: system.cpu.rob: [tid:0] Getting Head Bank: 1
 342000: system.cpu.rob: [tid:0] Getting Tail Bank: 13
 342000: system.cpu.rob: [tid:0] Getting Head Bank: 1
 342000: system.cpu.rob: [tid:0] Checking if head is ready. Head bank: 1 size=1
 342000: system.cpu.rob: [tid:0] Reading Head Instr.
 342000: system.cpu.rob: [tid:0] Getting Head Bank: 1
 342000: system.cpu.rob: [tid:0] Getting Head Bank: 1
 342000: system.cpu.rob: [tid:0] Retiring head instruction, instruction PC (0x418550=>0x418554).(0=>1), [sn:53]
 342000: system.cpu.rob: Updating global head ptr.
 342000: system.cpu.rob: [tid:0] Getting Head Bank: 2
 342000: system.cpu.rob: [tid:0] Getting Tail Bank: 13
 342000: system.cpu.rob: [tid:0] Getting Head Bank: 2
 342000: system.cpu.rob: [tid:0] Checking if head is ready. Head bank: 2 size=1
 342000: system.cpu.rob: [tid:0] Reading Head Instr.
 342000: system.cpu.rob: [tid:0] Getting Head Bank: 2
 342000: system.cpu.rob: [tid:0] Getting Head Bank: 2
 342000: system.cpu.rob: [tid:0] Retiring head instruction, instruction PC (0x418554=>0x418558).(0=>1), [sn:54]
 342000: system.cpu.rob: Updating global head ptr.
 342000: system.cpu.rob: [tid:0] Getting Head Bank: 3
 342000: system.cpu.rob: [tid:0] Getting Tail Bank: 13
 342000: system.cpu.rob: [tid:0] Getting Head Bank: 3
 342000: system.cpu.rob: [tid:0] Checking if head is ready. Head bank: 3 size=1
 342000: system.cpu.rob: [tid:0] Reading Head Instr.
 342000: system.cpu.rob: [tid:0] Getting Head Bank: 3
 342000: system.cpu.rob: [tid:0] Getting Head Bank: 3
 342000: system.cpu.rob: [tid:0] Retiring head instruction, instruction PC (0x418558=>0x41855c).(0=>1), [sn:55]
 342000: system.cpu.rob: Updating global head ptr.
 342000: system.cpu.rob: [tid:0] Getting Head Bank: 4
 342000: system.cpu.rob: [tid:0] Getting Tail Bank: 13
 342000: system.cpu.rob: [tid:0] Getting Head Bank: 4
 342000: system.cpu.rob: [tid:0] Checking if head is ready. Head bank: 4 size=1
 342000: system.cpu.rob: [tid:0] Reading Head Instr.
 342000: system.cpu.rob: [tid:0] Getting Head Bank: 4
 342000: system.cpu.rob: [tid:0] Getting Head Bank: 4
 342000: system.cpu.rob: [tid:0] Retiring head instruction, instruction PC (0x41855c=>0x418560).(0=>1), [sn:56]
 342000: system.cpu.rob: Updating global head ptr.
 342000: system.cpu.rob: [tid:0] Getting Head Bank: 5
 342000: system.cpu.rob: [tid:0] Getting Tail Bank: 13
 342000: system.cpu.rob: [tid:0] Getting Head Bank: 5
 342000: system.cpu.rob: [tid:0] Checking if head is ready. Head bank: 5 size=1
 342000: system.cpu.rob: [tid:0] Reading Head Instr.
 342000: system.cpu.rob: [tid:0] Getting Head Bank: 5
 342000: system.cpu.rob: [tid:0] Getting Head Bank: 5
 342000: system.cpu.rob: [tid:0] Retiring head instruction, instruction PC (0x418560=>0x418564).(0=>1), [sn:57]
 342000: system.cpu.rob: Updating global head ptr.
 342000: system.cpu.rob: [tid:0] Getting Head Bank: 6
 342000: system.cpu.rob: [tid:0] Getting Tail Bank: 13
 342000: system.cpu.rob: [tid:0] Getting Head Bank: 6
 342000: system.cpu.rob: [tid:0] Checking if head is ready. Head bank: 6 size=1
 342000: system.cpu.rob: [tid:0] Reading Head Instr.
 342000: system.cpu.rob: [tid:0] Getting Head Bank: 6
 342000: system.cpu.rob: [tid:0] Getting Head Bank: 6
 342000: system.cpu.rob: [tid:0] Retiring head instruction, instruction PC (0x418564=>0x418568).(0=>1), [sn:58]
 342000: system.cpu.rob: Updating global head ptr.
 342000: system.cpu.rob: [tid:0] Getting Head Bank: 7
 342000: system.cpu.rob: [tid:0] Getting Tail Bank: 13
 342000: system.cpu.rob: [tid:0] Getting Head Bank: 7
 342000: system.cpu.rob: [tid:0] Checking if head is ready. Head bank: 7 size=1
 342000: system.cpu.rob: [tid:0] Reading Head Instr.
 342000: system.cpu.rob: [tid:0] Getting Head Bank: 7
 342000: system.cpu.rob: [tid:0] Getting Head Bank: 7
 342000: system.cpu.rob: [tid:0] Retiring head instruction, instruction PC (0x418568=>0x41856c).(0=>1), [sn:59]
 342000: system.cpu.rob: Updating global head ptr.
 342000: system.cpu.rob: [tid:0] Getting Head Bank: 8
 342000: system.cpu.rob: [tid:0] Getting Tail Bank: 13
 342000: system.cpu.rob: [tid:0] Getting Head Bank: 8
 342000: system.cpu.rob: [tid:0] Checking if head is ready. Head bank: 8 size=1
 342000: system.cpu.rob: [tid:0] Reading Head Instr.
 342000: system.cpu.rob: [tid:0] Getting Head Bank: 8
 342000: system.cpu.rob: [tid:0] Getting Head Bank: 8
 342000: system.cpu.rob: [tid:0] Retiring head instruction, instruction PC (0x41856c=>0x418570).(0=>1), [sn:60]
 342000: system.cpu.rob: Updating global head ptr.
 342000: system.cpu.rob: [tid:0] Getting Head Bank: 9
 342000: system.cpu.rob: [tid:0] Getting Tail Bank: 13
 342000: system.cpu.rob: [tid:0] Getting Head Bank: 9
 342000: system.cpu.rob: [tid:0] Checking if head is ready. Head bank: 9 size=1
 342000: system.cpu.rob: [tid:0] Reading Head Instr.
 342000: system.cpu.rob: [tid:0] Getting Head Bank: 9
 342000: system.cpu.rob: [tid:0] Getting Head Bank: 9
 342000: system.cpu.rob: [tid:0] Retiring head instruction, instruction PC (0x418570=>0x418574).(0=>1), [sn:61]
 342000: system.cpu.rob: Updating global head ptr.
 342000: system.cpu.rob: [tid:0] Getting Head Bank: 10
 342000: system.cpu.rob: [tid:0] Getting Tail Bank: 13
 342000: system.cpu.rob: [tid:0] Getting Head Bank: 10
 342000: system.cpu.rob: [tid:0] Checking if head is ready. Head bank: 10 size=1
 342000: system.cpu.rob: [tid:0] Reading Head Instr.
 342000: system.cpu.rob: [tid:0] Getting Head Bank: 10
 342000: system.cpu.rob: [tid:0] Getting Head Bank: 10
 342000: system.cpu.rob: [tid:0] Retiring head instruction, instruction PC (0x418574=>0x418578).(0=>1), [sn:62]
 342000: system.cpu.rob: Updating global head ptr.
 342000: system.cpu.rob: [tid:0] Getting Head Bank: 11
 342000: system.cpu.rob: [tid:0] Getting Tail Bank: 13
 342000: system.cpu.rob: [tid:0] Getting Head Bank: 11
 342000: system.cpu.rob: [tid:0] Checking if head is ready. Head bank: 11 size=1
 342000: system.cpu.rob: [tid:0] Reading Head Instr.
 342000: system.cpu.rob: [tid:0] Getting Head Bank: 11
 342000: system.cpu.rob: [tid:0] Getting Head Bank: 11
 342000: system.cpu.rob: [tid:0] Retiring head instruction, instruction PC (0x418578=>0x41857c).(0=>1), [sn:63]
 342000: system.cpu.rob: Updating global head ptr.
 342000: system.cpu.rob: [tid:0] Getting Head Bank: 12
 342000: system.cpu.rob: [tid:0] Getting Tail Bank: 13
 342000: system.cpu.rob: [tid:0] Getting Head Bank: 12
 342000: system.cpu.rob: [tid:0] Checking if head is ready. Head bank: 12 size=1
 342000: system.cpu.rob: [tid:0] Reading Head Instr.
 342000: system.cpu.rob: [tid:0] Getting Head Bank: 12
 342000: system.cpu.rob: [tid:0] Getting Head Bank: 12
 342000: system.cpu.rob: [tid:0] Retiring head instruction, instruction PC (0x418578=>0x41857c).(1=>2), [sn:64]
 342000: system.cpu.rob: Updating global head ptr.
 342000: system.cpu.rob: [tid:0] Getting Head Bank: 13
 342000: system.cpu.rob: [tid:0] Getting Tail Bank: 13
 342000: system.cpu.rob: [tid:0] Getting Head Bank: 13
 342000: system.cpu.rob: [tid:0] Checking if head is ready. Head bank: 13 size=1
 342000: system.cpu.rob: [tid:0] Reading Head Instr.
 342000: system.cpu.rob: [tid:0] Getting Head Bank: 13
